195

Cl 2.365270615 1.630872011 0.246585563
B 2.840442896 1.201011896 1.004216909
S 0.762653887 2.310599089 1.201527476
C -2.693432331 -0.924516618 -2.928896666
N -1.198913455 -1.987544060 -1.108843923
B 0.354492337 2.818990946 -0.090845138
S -0.926389515 -1.192863584 -0.931673884
F -2.294667244 -2.774980545 -1.122365355
P 0.428499162 -1.070743680 -2.703059912
Br 0.364324123 0.248729870 0.294955552
F 2.483857632 0.887601376 1.456544161
C -2.300164700 -2.235788584 0.151474386
F -2.845042467 -2.892534494 0.181600809
B -1.724665046 -2.067629576 -0.316505551
N 0.765861571 1.150698781 0.735831320
F -0.418169677 -2.915509939 -2.712157249
N 0.972262025 2.598116875 3.006820440
P 2.641566992 2.012410641 -0.660538435
P -1.351501107 1.081801414 0.282761246
Cl 1.773713589 2.121278286 4.012568951
N 6.961003780 -0.427405030 0.823120236
C 6.550004482 -1.078405857 2.064124346
C 7.592004299 -2.105404854 2.574118614
O 7.678003788 -3.199403763 2.022117376
C 5.235003948 -1.797406197 1.682120919
C 4.781004429 -1.161404133 0.429122627
C 5.990004063 -0.622404575 -0.267875880
N 5.088004589 -4.372405529 6.808116436
C 4.268003941 -3.642405510 5.853114605
C 4.355003834 -4.138405323 4.394114971
O 3.686001778 -3.579404831 3.519117832
C 4.574003696 -2.142405033 5.950114727
O 4.039002895 -1.573405027 7.154117107
N 5.145003796 -5.186406612 4.126117229
C 5.352004528 -5.697406292 2.747122765
C 4.062004089 -5.943404675 1.941123843
O 3.078001976 -6.473407269 2.457121849
C 6.224004269 -6.962405682 2.765120506
C 6.989003658 -7.212405682 1.472122312
C 7.899005413 -8.436403275 1.539123416
C 8.662001610 -8.652402878 0.227119133
N 7.868002415 -8.400403976 -1.018875241
N 4.065003872 -5.553405285 0.672119081
C 2.878002167 -5.700406551 -0.171875224
C 1.817002177 -4.628406048 0.066123769
O 0.725002944 -4.728406429 -0.493881166
N 2.114001274 -3.624404907 0.908119500
C 1.201004148 -2.476404190 1.149124265
C 0.179003611 -2.629404068 2.285117149
O -1.044998050 -2.425405502 2.084121227
N 0.693003595 -2.969404221 3.477118015
C -0.095996149 -3.285404205 4.677119732
C 0.336003244 -2.533405304 5.908114910
O 1.477003694 -2.089406013 6.020114422
C -0.036996163 -4.786405087 4.995120525
C -0.675996006 -5.611405849 3.918119431
C -2.068996429 -5.739406109 3.858122349
C 0.102003768 -6.252406597 2.940123558
C -2.676999092 -6.491405010 2.857123375
C -0.493996680 -7.001407146 1.933120608
C -1.885997176 -7.110404491 1.898124337
O -2.510998726 -7.839402676 0.900123835
N -0.604996622 -2.389404297 6.836116314
C -0.282996327 -1.948404789 8.199125290
C -0.651995838 -3.110404968 9.125127792
O -1.650996566 -3.825405121 8.888128281
C -1.008996606 -0.638405323 8.570127487
C -2.530999184 -0.662405491 8.409124374
S -3.419999123 0.823594689 8.983129501
C -5.081995487 0.161595911 8.773130417
N -3.996998072 -5.147405148 7.407115459
C -5.036995411 -4.381406307 6.676120281
C -4.383995533 -3.626403809 5.498118877
O -3.325997353 -2.955404282 5.659114361
C -5.792995930 -3.407403946 7.630115032
C -6.543995380 -2.340404510 6.867114544
C -6.764996052 -4.187407017 8.526128769
N -4.990995884 -3.764404774 4.313113689
C -4.493996143 -3.084403992 3.115118980
C -4.570995808 -1.561405897 3.199118614
O -5.575994968 -0.987404644 3.689123631
N -3.498997688 -0.925406396 2.754118919
C -3.443997383 0.522596061 2.521117210
C -3.497998238 0.857594848 1.042121649
O -3.107998848 0.065595329 0.214118630
C -2.158997059 1.106595278 3.093123436
C -2.126996756 1.187594891 4.628116131
C -0.794997513 1.757594585 5.116115093
C -3.285998344 2.029595852 5.147113323
N -3.975998640 2.052594662 0.716117978
C -3.969997644 2.564596176 -0.656875491
C -3.378998756 3.979594231 -0.628875673
O -3.595997810 4.731594563 0.364120066
C -5.400995731 2.582595825 -1.245880485
C -5.984995365 1.189595699 -1.404877067
C -5.939995289 0.540595651 -2.630883217
C -6.558996677 0.503595233 -0.319877833
C -6.468996525 -0.738405704 -2.795876503
C -7.088995457 -0.767405033 -0.466880888
C -7.036995411 -1.392404795 -1.713882565
O -7.518995762 -2.685403824 -1.913880587
N -2.627997398 4.329595089 -1.688881040
C -2.175997257 5.708593845 -1.906876683
C -3.133997917 6.569593906 -2.772881508
O -3.606997490 6.129593372 -3.828879356
C -0.802997053 5.705593586 -2.566880226
O -0.427996695 7.038593769 -2.865876198
N -0.170996800 8.067593575 -5.641880512
C 0.853003561 7.266594410 -6.292881489
C 0.243003681 6.046593189 -6.935879230
O -0.856996000 5.663593769 -6.602886677
C 1.980002046 6.895594120 -5.306881428
C 2.782001495 8.092593193 -4.819881916
S 4.133003712 7.658594608 -3.699883461
C 3.233001709 6.694593906 -2.487877846
N 0.949003339 5.465593815 -7.890876293
C 0.487003058 4.267594814 -8.574876785
C 1.240003467 3.088596344 -7.929878712
O 2.446002007 3.170595169 -7.646885395
C 0.772002995 4.380595684 -10.087869644
N 0.513002932 2.016595364 -7.655880451
C 1.062004209 0.840594769 -7.005886555
C 1.507003427 -0.211405069 -8.040878296
O 0.704003155 -0.669405460 -8.875871658
C -0.003996192 0.235595182 -6.076885700
C 0.405003577 -1.122404575 -5.501881123
C -0.073996790 -2.369403839 -5.865879536
C 1.397002816 -1.352404118 -4.486881733
N 0.565003097 -3.347404957 -5.126881123
C 1.475002885 -2.751403809 -4.283886433
C 2.238001823 -0.504404545 -3.737877846
C 2.345002174 -3.323404789 -3.336876869
C 3.115001678 -1.061405897 -2.812882423
C 3.148001671 -2.472404480 -2.605881691
N 2.769001961 -0.618404865 -7.974876404
C 3.199001312 -1.745406151 -8.796869278
C 3.499001503 -2.960405350 -7.938881397
O 4.505004406 -2.968404770 -7.189884663
C 4.400003910 -1.430405378 -9.689874649
C 4.446004391 -2.455404282 -10.805871964
C 4.272003651 -0.040405728 -10.290872574
N 2.597002029 -3.955404520 -8.047878265
C 2.643001556 -5.219405651 -7.299885273
C 4.045003414 -5.808406353 -7.294880390
O 4.664003849 -5.955405712 -6.226879597
N 7.147003651 -4.240405560 -5.418880939
C 6.678003788 -3.873406410 -4.054881573
C 6.772003651 -2.368404388 -3.746880531
O 7.392004490 -1.949404240 -2.748879433
C 7.415004253 -4.701406002 -2.958878517
C 6.953004360 -4.365405560 -1.531875730
O 5.764004230 -4.350406170 -1.232879996
N 7.905004978 -4.075405598 -0.651878238
N 6.164003849 -1.547405958 -4.598881245
C 6.297004223 -0.111404851 -4.401882648
C 5.175004482 0.693595529 -4.987881184
O 4.448004246 0.212594509 -5.882885456
C 7.678003788 0.414594352 -4.865879536
C 7.915004253 0.291594863 -6.368885517
O 7.048003674 -0.097404942 -7.151882648
N 9.113001823 0.655595303 -6.773884296
N 5.011003971 1.893594503 -4.432880878
C 4.138003826 2.907594681 -5.029881001
C 5.082004070 3.929594517 -5.634884357
O 6.156004429 4.196595669 -5.069881916
C 3.309001923 3.656595230 -3.978885889
C 2.103001595 2.964595795 -3.356881142
C 0.894004047 2.726594925 -3.940881252
C 1.995002389 2.486595631 -2.007881641
N 0.050003782 2.101594925 -3.054879189
C 0.703003705 1.952594995 -1.854881883
C 2.880002022 2.437595844 -0.921875179
C 0.262003779 1.385594845 -0.645881593
C 2.437002182 1.880595922 0.275123268
C 1.141003728 1.360595226 0.396117866
N -2.391997337 8.305591583 2.839118004
C -2.372998238 6.832594395 2.814124107
C -3.590998650 6.302593708 3.586119175
O -3.700997353 6.448593616 4.811114788
C -1.049996972 6.227594852 3.341116905
C 0.239002988 6.218594074 2.476119041
C 1.406003594 5.584593296 3.223120689
C 0.082003370 5.548593998 1.120124698
N -4.509994984 5.677593708 2.858122826
C -5.856995106 5.511593342 3.383116245
C -6.360996723 4.064594269 3.312117577
O -5.780996799 3.234596252 2.611121178
C -6.829996586 6.490593433 2.654120445
C -7.123995304 6.116594791 1.194122434
C -8.251996040 5.375593662 0.868118286
C -6.241995335 6.482594013 0.156120032
C -8.527998924 5.024593830 -0.447875857
C -6.474995136 6.112593174 -1.179878592
C -7.626995564 5.389593601 -1.471878171
O -7.901995182 5.024593830 -2.753876686
