195

C 2.633181095 1.982159138 0.637812734
F 2.678557396 2.544558764 3.335320234
O 2.062747955 1.620048404 0.724427342
B -2.416725397 -2.679324627 -4.053911686
C -1.454567194 -2.212467194 -2.704874992
S 0.546567321 2.422751665 0.726037681
S -1.254157662 -1.352625012 -1.984357357
F -1.723693132 -3.572773457 -1.348778367
Cl -1.205230236 -1.033593535 -2.517738104
I 0.950580835 1.428446770 0.157536805
B 2.766490221 2.445920706 1.746898532
B -3.915969610 -2.695092440 0.301611781
Br -3.248312712 -2.996621132 -0.379462481
Cl -2.868503332 -2.752648354 0.143557906
I 1.441394925 0.890691221 1.447282076
F -1.716033340 -3.692380428 -3.022048235
N 1.739588618 2.698885441 3.339394569
C 3.064005613 2.469933510 -0.383061111
Cl -1.009225130 1.364771485 -0.710572541
C 2.929303408 3.119360447 4.544925213
N 7.009600639 -0.166234046 0.935590088
C 6.598601341 -0.817235589 2.176594734
C 7.640601158 -1.844233990 2.686589241
O 7.726600647 -2.938232899 2.134587288
C 5.283600807 -1.536235571 1.794590354
C 4.829601288 -0.900233805 0.541592598
C 6.038600922 -0.361233413 -0.155406371
N 5.136601448 -4.111233234 6.920583725
C 4.316600800 -3.381234646 5.965581894
C 4.403600693 -3.877234459 4.506582260
O 3.734595776 -3.318233967 3.631588459
C 4.622600555 -1.881234169 6.062582016
O 4.087599754 -1.312234402 7.266584396
N 5.193600655 -4.925234318 4.238584518
C 5.400601387 -5.436233997 2.859593391
C 4.110601425 -5.682232380 2.053594112
O 3.126595974 -6.212234974 2.569592476
C 6.272601128 -6.701233387 2.877591133
C 7.037600517 -6.951233387 1.584591746
C 7.947602272 -8.175229073 1.651592851
C 8.710596085 -8.391228676 0.339588881
N 7.916599274 -8.139229774 -0.906405270
N 4.113601685 -5.292232990 0.784589112
C 2.926596165 -5.439234257 -0.059405580
C 1.865597248 -4.367233753 0.178593352
O 0.773597419 -4.467234135 -0.381411463
N 2.162594795 -3.363234043 1.020588994
C 1.249599218 -2.215233326 1.261593699
C 0.227598339 -2.368233204 2.397587776
O -0.996403933 -2.164234638 2.196591854
N 0.741598070 -2.708233356 3.589588642
C -0.047401473 -3.024233341 4.789587021
C 0.384597898 -2.272234440 6.020582199
O 1.525598764 -1.828235149 6.132581711
C 0.011598492 -4.525232792 5.107587814
C -0.627401531 -5.350233555 4.030587196
C -2.020401955 -5.478233814 3.970590115
C 0.150598437 -5.991234303 3.052594185
C -2.628405094 -6.230232716 2.969594002
C -0.445402026 -6.740234852 2.045590878
C -1.837401867 -6.849232197 2.010594845
O -2.462404728 -7.578230381 1.012593389
N -0.556402206 -2.128233433 6.948583603
C -0.234401613 -1.687234163 8.311593056
C -0.603401363 -2.849234104 9.237595558
O -1.602401495 -3.564234257 9.000596046
C -0.960402191 -0.377234161 8.682595253
C -2.482405186 -0.401234448 8.521592140
S -3.371405125 1.084765673 9.095597267
C -5.033398628 0.422766894 8.885598183
N -3.948403835 -4.886232853 7.519582748
C -4.988398552 -4.120234013 6.788587570
C -4.335398674 -3.365232944 5.610586166
O -3.277403355 -2.694233418 5.771581650
C -5.744399071 -3.146233082 7.742582321
C -6.495398521 -2.079233646 6.979581833
C -6.716399193 -3.926238060 8.638596535
N -4.942399025 -3.503233910 4.425580978
C -4.445399284 -2.823233128 3.227589607
C -4.522398949 -1.300235271 3.311589241
O -5.527398109 -0.726234019 3.801594257
N -3.450403690 -0.664235651 2.866589546
C -3.395403385 0.783766806 2.633587837
C -3.449404240 1.118765831 1.154590964
O -3.059404850 0.326766223 0.326588303
C -2.110403061 1.367765903 3.205594063
C -2.078402996 1.448765516 4.740583420
C -0.746403039 2.018765450 5.228582382
C -3.237404346 2.290766239 5.259580612
N -3.927403927 2.313765526 0.828588009
C -3.921403408 2.825767040 -0.544405758
C -3.330404758 4.240767002 -0.516405880
O -3.547403812 4.992766857 0.476589918
C -5.352398872 2.843766689 -1.133411050
C -5.936398506 1.450766325 -1.292407632
C -5.891398430 0.801766336 -2.518412590
C -6.510399818 0.764765799 -0.207408279
C -6.420399666 -0.477234900 -2.683405876
C -7.040398598 -0.506234229 -0.354411334
C -6.988398552 -1.131234169 -1.601413131
O -7.470398903 -2.424232960 -1.801411271
N -2.579403400 4.590767384 -1.576411605
C -2.127403259 5.969766140 -1.794407248
C -3.085403919 6.830766201 -2.660410881
O -3.558403492 6.390765667 -3.716408730
C -0.754402578 5.966765881 -2.454409599
O -0.379401982 7.299766064 -2.753405571
N -0.122402117 8.328766823 -5.529413223
C 0.901598036 7.527766705 -6.180414200
C 0.291598350 6.307765484 -6.823411942
O -0.808401525 5.924766064 -6.490419388
C 2.028595448 7.156766415 -5.194414139
C 2.830595493 8.353766441 -4.707414627
S 4.181600571 7.919766903 -3.587412834
C 3.281595707 6.955766201 -2.375407219
N 0.997598588 5.726766109 -7.778409004
C 0.535597622 4.528767109 -8.462409019
C 1.288598537 3.349767208 -7.817411423
O 2.494596004 3.431766033 -7.534418106
C 0.820597470 4.641767979 -9.975401878
N 0.561597407 2.277765751 -7.543413162
C 1.110599518 1.101765633 -6.893419266
C 1.555598497 0.049765848 -7.928412437
O 0.752597630 -0.408234417 -8.763403893
C 0.044598471 0.496766180 -5.964418411
C 0.453598261 -0.861234367 -5.389413834
C -0.025402114 -2.108232975 -5.753412247
C 1.445597887 -1.091233492 -4.374414444
N 0.613597453 -3.086234093 -5.014413834
C 1.523597956 -2.490232944 -4.171419144
C 2.286595821 -0.243233368 -3.625407219
C 2.393596172 -3.062233925 -3.224406242
C 3.163595676 -0.800235629 -2.700411797
C 3.196595669 -2.211233616 -2.493411064
N 2.817595959 -0.357233703 -7.862409592
C 3.247595310 -1.484235525 -8.684401512
C 3.547595501 -2.699234486 -7.826415062
O 4.553601265 -2.707233906 -7.077417374
C 4.448600769 -1.169234753 -9.577406883
C 4.494601250 -2.194233418 -10.693404198
C 4.320600510 0.220765233 -10.178404808
N 2.645596027 -3.694233894 -7.935412407
C 2.691595554 -4.958233356 -7.187417984
C 4.093600273 -5.547234058 -7.182413101
O 4.712600708 -5.694233418 -6.114412308
N 7.195600510 -3.979235649 -5.306413651
C 6.726600647 -3.612235546 -3.942412376
C 6.820600510 -2.107233524 -3.634409904
O 7.440601349 -1.688233614 -2.636408806
C 7.463601112 -4.440233707 -2.846407890
C 7.001601219 -4.104233265 -1.419406295
O 5.812601089 -4.089233875 -1.120410562
N 7.953600883 -3.814235210 -0.539408505
N 6.212600708 -1.286235332 -4.486413956
C 6.345601082 0.149766088 -4.289415359
C 5.223601341 0.954766154 -4.875413895
O 4.496601105 0.473765582 -5.770418167
C 7.726600647 0.675764918 -4.753412247
C 7.963599205 0.552765727 -6.256418228
O 7.096600533 0.163765982 -7.039415359
N 9.161596298 0.916765988 -6.661417007
N 5.059600830 2.154765129 -4.320413589
C 4.186600685 3.168765545 -4.917413712
C 5.130600929 4.190767765 -5.522417068
O 6.204601288 4.457767963 -4.957414627
C 3.357595921 3.917766094 -3.866415977
C 2.151595116 3.225766659 -3.244410515
C 0.942598581 2.987765789 -3.828411102
C 2.043596268 2.747766495 -1.895411134
N 0.098598555 2.362765789 -2.942408562
C 0.751598179 2.213765144 -1.742412448
C 2.928596020 2.698766708 -0.809405088
C 0.310598433 1.646765471 -0.533411741
C 2.485596180 2.141767025 0.387593031
C 1.189599037 1.621765852 0.508587658
N -2.343403339 8.566765785 2.951588631
C -2.324404240 7.093766689 2.926594734
C -3.542404652 6.563766003 3.698589802
O -3.652403355 6.709765911 4.923582077
C -1.001402617 6.488767147 3.453587532
C 0.287597656 6.479766369 2.588589668
C 1.454598665 5.845765591 3.335591316
C 0.130598113 5.809766293 1.232594132
N -4.461398125 5.938766003 2.970593452
C -5.808398247 5.772765636 3.495586872
C -6.312399864 4.325767040 3.424588203
O -5.732399940 3.495767117 2.723591805
C -6.781399727 6.751765728 2.766591072
C -7.075398445 6.377767086 1.306591868
C -8.203401566 5.636765957 0.980587959
C -6.193398476 6.743766308 0.268589675
C -8.479404449 5.285766125 -0.335406303
C -6.426398277 6.373765469 -1.067409039
C -7.578398705 5.650765896 -1.359408736
O -7.853397369 5.285766125 -2.641406059
