195

Cl 2.648198366 2.508605480 0.294991583
P 3.048135281 2.150654316 2.988076448
S 1.955070496 1.963955998 0.742612362
B -2.259256363 -2.298713446 -3.742181301
Cl -1.292783499 -2.650756359 -2.424414635
O 0.277930409 2.517491817 0.416239858
S -1.434457064 -1.335472465 -2.120842457
I -1.680073857 -3.577746630 -1.736291647
I -1.235049486 -1.282281041 -2.381258726
Cl 1.049579501 1.081648707 -0.066933438
B 3.177098036 2.472900152 1.681435704
B -3.817384005 -2.750491142 -0.181815848
O -2.815339088 -3.001075029 -0.274810523
N -2.726887465 -1.988793612 0.279989749
I 1.001432180 0.633569777 1.727647424
F -1.384494662 -3.528313398 -2.430047750
F 1.450312018 2.697618008 3.390986204
C 2.340528011 2.353874207 -0.494009167
Cl -1.240010500 1.156627178 -0.520637929
I 2.937451363 2.876696825 4.851263523
N 7.030658722 -0.256951123 1.093636990
C 6.619659424 -0.907952487 2.334642172
C 7.661659241 -1.934950948 2.844636679
O 7.747658730 -3.028949976 2.292634726
C 5.304658890 -1.626952529 1.952637434
C 4.850659370 -0.990950704 0.699639380
C 6.059659004 -0.451950490 0.002640653
N 5.157659531 -4.201953411 7.078631401
C 4.337658882 -3.471951723 6.123629570
C 4.424658775 -3.967951536 4.664629936
O 3.755654335 -3.408951044 3.789635897
C 4.643658638 -1.971951127 6.220629692
O 4.108657837 -1.402951360 7.424632072
N 5.214658737 -5.015954494 4.396632195
C 5.421659470 -5.526954174 3.017640829
C 4.131659508 -5.772952557 2.211641550
O 3.147654533 -6.302955151 2.727639914
C 6.293659210 -6.791953564 3.035638571
C 7.058658600 -7.041953564 1.742638826
C 7.968660355 -8.265946388 1.809639931
C 8.731652260 -8.481945992 0.497635871
N 7.937657356 -8.229947090 -0.748358488
N 4.134659767 -5.382953167 0.942635894
C 2.947654724 -5.529954433 0.098641418
C 1.886654973 -4.457953930 0.336640388
O 0.794655383 -4.557954311 -0.223364457
N 2.183653355 -3.453951120 1.178636074
C 1.270656943 -2.305950403 1.419640779
C 0.248656303 -2.458950281 2.555635214
O -0.975345969 -2.254951715 2.354639292
N 0.762656033 -2.798950434 3.747636080
C -0.026343476 -3.114950418 4.947634697
C 0.405655891 -2.362951517 6.178629875
O 1.546656489 -1.918952107 6.290629387
C 0.032656491 -4.615952969 5.265635490
C -0.606343567 -5.440953732 4.188634872
C -1.999343753 -5.568953991 4.128638268
C 0.171656460 -6.081954479 3.210641623
C -2.607346535 -6.320952892 3.127641439
C -0.424344033 -6.830955029 2.203638315
C -1.816344142 -6.939952374 2.168642282
O -2.441346169 -7.668950558 1.170640469
N -0.535344183 -2.218950510 7.106631279
C -0.213343576 -1.777951121 8.469640732
C -0.582343400 -2.939951181 9.395643234
O -1.581343770 -3.654951334 9.158643723
C -0.939344227 -0.467951238 8.840642929
C -2.461346626 -0.491951525 8.679639816
S -3.350346565 0.994048715 9.253644943
C -5.012340546 0.332049817 9.043645859
N -3.927345276 -4.976953030 7.677630424
C -4.967340469 -4.210954189 6.946635246
C -4.314340591 -3.455950022 5.768633842
O -3.256344795 -2.784950495 5.929629326
C -5.723340988 -3.236950159 7.900629997
C -6.474340439 -2.169950724 7.137629509
C -6.695341110 -4.016954899 8.796644211
N -4.921340942 -3.593950987 4.583628654
C -4.424341202 -2.913950205 3.385637045
C -4.501340866 -1.390952229 3.469636679
O -5.506340027 -0.816950917 3.959641695
N -3.429345131 -0.754952550 3.024636984
C -3.374344826 0.693049908 2.791635275
C -3.428345680 1.028048873 1.312638044
O -3.038346291 0.236049116 0.484635293
C -2.089344501 1.277048945 3.363641500
C -2.057344437 1.358048558 4.898631096
C -0.725345075 1.928048253 5.386630058
C -3.216345787 2.200049162 5.417628288
N -3.906345367 2.223048449 0.986634791
C -3.900344849 2.735049963 -0.386358708
C -3.309346199 4.150046825 -0.358358920
O -3.526345253 4.902046680 0.634636700
C -5.331340790 2.753049612 -0.975364029
C -5.915340424 1.360049367 -1.134360552
C -5.870340347 0.711049438 -2.360365152
C -6.489341736 0.674048901 -0.049361259
C -6.399341583 -0.567951918 -2.525358438
C -7.019340515 -0.596951246 -0.196364358
C -6.967340469 -1.221951127 -1.443366051
O -7.449340820 -2.514950037 -1.643364191
N -2.558344841 4.500047207 -1.418364525
C -2.106344700 5.879045963 -1.636360168
C -3.064345360 6.740046024 -2.502363443
O -3.537344933 6.300045490 -3.558361292
C -0.733344615 5.876045704 -2.296362162
O -0.358343989 7.209045887 -2.595358133
N -0.101344109 8.238049507 -5.371365547
C 0.922656000 7.437046528 -6.022366524
C 0.312656343 6.217045307 -6.665364265
O -0.787343562 5.834045887 -6.332371712
C 2.049654007 7.066046238 -5.036366463
C 2.851654053 8.263049126 -4.549366951
S 4.202658653 7.829046726 -3.429365396
C 3.302654266 6.865046024 -2.217359781
N 1.018656373 5.636045933 -7.620361328
C 0.556655586 4.438046932 -8.304361343
C 1.309656262 3.259050131 -7.659363747
O 2.515654564 3.341048956 -7.376370430
C 0.841655433 4.551047802 -9.817354202
N 0.582655370 2.187048674 -7.385365486
C 1.131657243 1.011048794 -6.735371590
C 1.576656222 -0.040951222 -7.770364761
O 0.773655593 -0.498951495 -8.605356216
C 0.065656483 0.406049162 -5.806370735
C 0.474656135 -0.951951265 -5.231366158
C -0.004344124 -2.198950052 -5.595364571
C 1.466655612 -1.181950450 -4.216366768
N 0.634655416 -3.176951170 -4.856366158
C 1.544655681 -2.580950022 -4.013371468
C 2.307654381 -0.333950460 -3.467359781
C 2.414654732 -3.152951002 -3.066358805
C 3.184654236 -0.890952528 -2.542364359
C 3.217654228 -2.301950693 -2.335363626
N 2.838654518 -0.447950780 -7.704361916
C 3.268653870 -1.574952483 -8.526353836
C 3.568654060 -2.789951563 -7.668367386
O 4.574659348 -2.797950983 -6.919369698
C 4.469658852 -1.259951711 -9.419359207
C 4.515659332 -2.284950495 -10.535356522
C 4.341658592 0.130048126 -10.020357132
N 2.666654587 -3.784950972 -7.777364731
C 2.712654114 -5.048953533 -7.029370308
C 4.114658356 -5.637954235 -7.024365425
O 4.733658791 -5.784953594 -5.956364632
N 7.216658592 -4.069953442 -5.148365974
C 6.747658730 -3.702952623 -3.784364939
C 6.841658592 -2.197950602 -3.476362467
O 7.461659431 -1.778950572 -2.478361368
C 7.484659195 -4.530953884 -2.688360453
C 7.022659302 -4.194953442 -1.261359215
O 5.833659172 -4.179954052 -0.962363541
N 7.974658966 -3.904952288 -0.381361455
N 6.233658791 -1.376952291 -4.328366280
C 6.366659164 0.059048999 -4.131367683
C 5.244659424 0.864049315 -4.717366219
O 4.517659187 0.383048475 -5.612370491
C 7.747658730 0.585048020 -4.595364571
C 7.984657288 0.462048799 -6.098370552
O 7.117658615 0.073048890 -6.881367683
N 9.182652473 0.826049089 -6.503369331
N 5.080658913 2.064048052 -4.162365913
C 4.207658768 3.078048468 -4.759366035
C 5.151659012 4.100047588 -5.364369392
O 6.225659370 4.367047787 -4.799366951
C 3.378654480 3.827049017 -3.708368540
C 2.172653675 3.135049582 -3.086363077
C 0.963656485 2.897048712 -3.670363665
C 2.064654827 2.657049417 -1.737364054
N 0.119656518 2.272048712 -2.784361124
C 0.772656143 2.123048067 -1.584365368
C 2.949654579 2.608049631 -0.651358306
C 0.331656426 1.556048512 -0.375364780
C 2.506654739 2.051049948 0.545639873
C 1.210656762 1.531048894 0.666634440
N -2.322344780 8.476048470 3.109636068
C -2.303345680 7.003046513 3.084642172
C -3.521346092 6.473045826 3.856637239
O -3.631344795 6.619045734 5.081629753
C -0.980344832 6.398046970 3.611634970
C 0.308655649 6.389046192 2.746637106
C 1.475656390 5.755045414 3.493638754
C 0.151656106 5.719046116 1.390641212
N -4.440340042 5.848045826 3.128640890
C -5.787340164 5.682045460 3.653634310
C -6.291341782 4.235046864 3.582635641
O -5.711341858 3.405050039 2.881639242
C -6.760341644 6.661045551 2.924638510
C -7.054340363 6.287046909 1.464638948
C -8.182345390 5.546045780 1.138634920
C -6.172340393 6.653046131 0.426636666
C -8.458348274 5.195045948 -0.177359328
C -6.405340195 6.283045292 -0.909362078
C -7.557340622 5.560045719 -1.201361656
O -7.832339287 5.195045948 -2.483358622
