195

S 2.178967714 1.361533880 -0.169486776
B 1.867572188 0.632273614 0.689270914
I 1.365737557 1.858884573 1.115467668
B -2.631648540 -1.082577825 -2.142446041
Cl -0.707678735 -1.738508105 -1.106438756
B 0.621915579 2.570122480 0.140596434
F 0.449429035 -1.504262209 -0.427679718
Cl -2.976253986 -1.959141135 -1.134478569
I 0.237000152 -0.587104619 -2.569900513
B -0.193429232 -0.324322939 0.477325320
S 2.612723589 1.094430566 0.873336375
B -1.565365672 -2.863235712 0.087214693
F -2.578332424 -2.116045952 -0.062774345
B -1.412084222 -1.495426059 -0.759854853
N 1.188443184 1.070484757 0.972439408
F -0.286653101 -2.934108496 -2.700704336
N 0.527873576 2.581061125 2.769616127
P 1.381719708 2.044617891 -0.271449119
N -1.504970789 1.521955490 0.622402191
S 1.425034404 1.869368672 3.597543001
N 7.061113358 -0.445800185 0.816057205
C 6.650114059 -1.096801043 2.057060719
C 7.692113876 -2.123799801 2.567055702
O 7.778113365 -3.217798710 2.015053749
C 5.335113525 -1.815801382 1.675057650
C 4.881114006 -1.179799318 0.422059625
C 6.090113640 -0.640799761 -0.274938881
N 5.188114166 -4.390800953 6.801055908
C 4.368113518 -3.660800457 5.846054077
C 4.455113411 -4.156800747 4.387054443
O 3.786111593 -3.597799778 3.512054920
C 4.674113274 -2.160799980 5.943054199
O 4.139112473 -1.591800213 7.147056580
N 5.245113373 -5.204802036 4.119055748
C 5.452114105 -5.715801716 2.740059853
C 4.162113667 -5.961800098 1.934060574
O 3.178111792 -6.491802692 2.450058937
C 6.324113846 -6.980801105 2.758057594
C 7.089113235 -7.230801105 1.465059042
C 7.999114513 -8.454797745 1.532060146
C 8.762111664 -8.670797348 0.220056072
N 7.968111992 -8.418798447 -1.025938511
N 4.165113449 -5.571800709 0.665056050
C 2.978111982 -5.718801975 -0.178938299
C 1.917112350 -4.646801472 0.059060737
O 0.825112700 -4.746801853 -0.500944197
N 2.214111090 -3.642799854 0.901056468
C 1.301114321 -2.494799137 1.142060995
C 0.279113531 -2.647799015 2.278054237
O -0.944888115 -2.443800449 2.077057362
N 0.793113351 -2.987799168 3.470055103
C 0.004113772 -3.303799152 4.670059204
C 0.436113209 -2.551800251 5.901054382
O 1.577113867 -2.107800961 6.013053894
C 0.063113749 -4.804800510 4.988059998
C -0.575886250 -5.629801273 3.911056519
C -1.968886495 -5.757801533 3.851059437
C 0.202113688 -6.270802021 2.933060646
C -2.576889277 -6.509800434 2.850060463
C -0.393886715 -7.019802570 1.926057339
C -1.785887003 -7.128799915 1.891061068
O -2.410888910 -7.857798100 0.893060803
N -0.504886925 -2.407799244 6.829055786
C -0.182886422 -1.966799974 8.192061424
C -0.551886082 -3.128799915 9.118062973
O -1.550886393 -3.843800068 8.881063461
C -0.908886790 -0.656800508 8.563062668
C -2.430889368 -0.680800676 8.402059555
S -3.319889307 0.805199504 8.976064682
C -4.981885910 0.143200740 8.766065598
N -3.896888256 -5.165800571 7.400054932
C -4.936885834 -4.399801731 6.669059753
C -4.283885956 -3.644798756 5.491058350
O -3.225887537 -2.973799229 5.652053833
C -5.692886353 -3.425798893 7.623054504
C -6.443885803 -2.358799458 6.860054016
C -6.664886475 -4.205801964 8.519063950
N -4.890886307 -3.782799721 4.306053162
C -4.393886566 -3.102798939 3.108056068
C -4.470886230 -1.579801083 3.192055702
O -5.475885391 -1.005799770 3.682060719
N -3.398887873 -0.943801463 2.747056007
C -3.343887568 0.504200935 2.514054298
C -3.397888422 0.839199662 1.035058737
O -3.007889032 0.047200166 0.207055569
C -2.058887243 1.088200092 3.086060524
C -2.026886940 1.169199705 4.621055603
C -0.694887757 1.739199400 5.109054565
C -3.185888529 2.011200905 5.140052795
N -3.875888824 2.034199715 0.709054947
C -3.869887829 2.546201229 -0.663938522
C -3.278888941 3.961199284 -0.635938704
O -3.495887995 4.713199139 0.357057095
C -5.300886154 2.564200878 -1.252943754
C -5.884885788 1.171200514 -1.411940336
C -5.839885712 0.522200525 -2.637946129
C -6.458887100 0.485200077 -0.326940835
C -6.368886948 -0.756800890 -2.802939415
C -6.988885880 -0.785800219 -0.473943859
C -6.936885834 -1.410799980 -1.720945835
O -7.418886185 -2.703798771 -1.920943260
N -2.527887583 4.311199665 -1.695944309
C -2.075887442 5.690198421 -1.913939476
C -3.033888102 6.551198483 -2.779944420
O -3.506887674 6.111197948 -3.835942268
C -0.702887297 5.687198162 -2.573943138
O -0.327886730 7.020198345 -2.872939110
N -0.070886888 8.049198151 -5.648941040
C 0.953113317 7.248198986 -6.299942017
C 0.343113631 6.028197765 -6.942939758
O -0.756886244 5.645198345 -6.609947205
C 2.080111742 6.877198696 -5.313941956
C 2.882111311 8.074199677 -4.826942444
S 4.233113289 7.640199184 -3.706946373
C 3.333111525 6.676198483 -2.494940758
N 1.049113274 5.447198391 -7.897939682
C 0.587112904 4.249199390 -8.581941605
C 1.340113640 3.070201397 -7.936943054
O 2.546111822 3.152200222 -7.653945923
C 0.872112751 4.362200260 -10.094934464
N 0.613112688 1.998200417 -7.662940979
C 1.162114382 0.822199583 -7.012947083
C 1.607113600 -0.229800269 -8.047942162
O 0.804112911 -0.687800646 -8.882936478
C 0.096113726 0.217200041 -6.083946228
C 0.505113482 -1.140799761 -5.508941650
C 0.026113128 -2.387798786 -5.872940063
C 1.497112989 -1.370799303 -4.493942261
N 0.665112853 -3.365799904 -5.133941650
C 1.575113058 -2.769798756 -4.290946960
C 2.338111639 -0.522799730 -3.744940758
C 2.445111990 -3.341799736 -3.343939781
C 3.215111494 -1.079801083 -2.819945335
C 3.248111486 -2.490799427 -2.612944603
N 2.869111776 -0.636800051 -7.981941223
C 3.299111128 -1.763801336 -8.803934097
C 3.599111319 -2.978800297 -7.945945740
O 4.605113983 -2.986799717 -7.196945190
C 4.500113487 -1.448800564 -9.696939468
C 4.546113968 -2.473799229 -10.812936783
C 4.372113228 -0.058800895 -10.297937393
N 2.697111845 -3.973799229 -8.054942131
C 2.743111372 -5.237801075 -7.306945801
C 4.145112991 -5.826801777 -7.301940918
O 4.764113426 -5.973801136 -6.233940125
N 7.247113228 -4.258800983 -5.425941467
C 6.778113365 -3.891801834 -4.061942101
C 6.872113228 -2.386799335 -3.753943443
O 7.492114067 -1.967799425 -2.755942345
C 7.515113831 -4.719801426 -2.965941429
C 7.053113937 -4.383800983 -1.538938999
O 5.864113808 -4.368801594 -1.239943266
N 8.005114555 -4.093800545 -0.658941269
N 6.264113426 -1.565801144 -4.605941772
C 6.397113800 -0.129800022 -4.408943176
C 5.275114059 0.675200343 -4.994941711
O 4.548113823 0.194199339 -5.889945984
C 7.778113365 0.396199226 -4.872940063
C 8.015113831 0.273199767 -6.375946045
O 7.148113251 -0.115800112 -7.158943176
N 9.213111877 0.637200117 -6.780944824
N 5.111113548 1.875199318 -4.439941406
C 4.238113403 2.889199734 -5.036941528
C 5.182113647 3.911199570 -5.641944885
O 6.256114006 4.178200245 -5.076942444
C 3.409111738 3.638200283 -3.985947132
C 2.203111410 2.946200848 -3.363944054
C 0.994113863 2.708199978 -3.947943687
C 2.095112085 2.468200684 -2.014944553
N 0.150113672 2.083199978 -3.061942101
C 0.803113461 1.934199810 -1.861945152
C 2.980111837 2.419200897 -0.928938329
C 0.362113744 1.367199659 -0.652944624
C 2.537111998 1.862200737 0.268060237
C 1.241113901 1.342200041 0.389054865
N -2.291887522 8.287197113 2.832055092
C -2.272888422 6.814198971 2.807061195
C -3.490888834 6.284198284 3.579056263
O -3.600887537 6.430198193 4.804054260
C -0.949886918 6.209199429 3.334053993
C 0.339112967 6.200198650 2.469056129
C 1.506113768 5.566197872 3.216057777
C 0.182113290 5.530198574 1.113061428
N -4.409885406 5.659198284 2.851059914
C -5.756885529 5.493197918 3.376053333
C -6.260887146 4.046198845 3.305054665
O -5.680887222 3.216201305 2.604058266
C -6.729887009 6.472198009 2.647057533
C -7.023885727 6.098199368 1.187059164
C -8.151885033 5.357198238 0.861055255
C -6.141885757 6.464198589 0.149056971
C -8.427888870 5.006198406 -0.454938918
C -6.374885559 6.094197750 -1.186941862
C -7.526885986 5.371198177 -1.478941441
O -7.801885605 5.006198406 -2.760939598
