195

Br 2.828908443 2.263104916 0.353633851
O 2.822737932 2.588633537 3.266051054
O 1.660024166 1.979875207 0.612873733
B -2.369127035 -2.607769251 -4.174495697
Cl -1.226402402 -2.559993505 -2.579483032
O 0.506006658 2.468198299 0.819604874
S -1.089382291 -1.329365969 -2.093752861
I -1.527466178 -3.605521441 -1.367556214
C -1.240467787 -1.051404953 -2.429179907
Cl 0.948503375 1.007396221 -0.220109999
B 2.960713863 2.451185465 1.634209752
B -3.735920668 -2.682010651 -0.112457387
O -2.978986979 -2.979882002 -0.151780769
Cl -2.819377422 -2.385799408 0.181348875
I 1.066213369 0.839888871 1.644552231
F -1.543588519 -3.811944723 -2.701060057
F 1.487971187 2.532527447 3.479826689
C 2.694198370 2.521045685 -0.425016582
N -1.236016512 1.455028415 -0.583616734
C 2.791460276 2.906807423 4.846407890
N 7.054028511 -0.119584814 0.988139868
C 6.643029213 -0.770586193 2.229144335
C 7.685029030 -1.797584772 2.739138842
O 7.771028519 -2.891583681 2.187136889
C 5.328028679 -1.489586353 1.847140193
C 4.874029160 -0.853584409 0.594142318
C 6.083028793 -0.314584196 -0.102856636
N 5.181029320 -4.064585686 6.973134041
C 4.361028671 -3.334585428 6.018132210
C 4.448028564 -3.830585241 4.559132576
O 3.779023409 -3.271584749 3.684138060
C 4.667028427 -1.834584951 6.115132332
O 4.132027626 -1.265585184 7.319134712
N 5.238028526 -4.878586769 4.291134834
C 5.445029259 -5.389586449 2.912142992
C 4.155029297 -5.635584831 2.106143713
O 3.171023607 -6.165587425 2.622142076
C 6.317028999 -6.654585838 2.930140734
C 7.082028389 -6.904585838 1.637141585
C 7.992029667 -8.128582001 1.704142690
C 8.755023003 -8.344581604 0.392138571
N 7.961027145 -8.092582703 -0.853855550
N 4.158029556 -5.245585442 0.837138832
C 2.971023798 -5.392586708 -0.006855861
C 1.910024643 -4.320586205 0.231143042
O 0.818024874 -4.420586586 -0.328861773
N 2.207022429 -3.316584826 1.073138833
C 1.294026613 -2.168584108 1.314143538
C 0.272025764 -2.321583986 2.450137377
O -0.951976478 -2.117585421 2.249141455
N 0.786025524 -2.661584139 3.642138243
C -0.002974022 -2.977584124 4.842137337
C 0.429025352 -2.225585222 6.073132515
O 1.570026159 -1.781585932 6.185132027
C 0.056025948 -4.478585243 5.160138130
C -0.582974076 -5.303586006 4.083137512
C -1.975974083 -5.431586266 4.023140907
C 0.195025906 -5.944586754 3.105143785
C -2.583977461 -6.183585167 3.022143602
C -0.400974572 -6.693587303 2.098140478
C -1.792974472 -6.802584648 2.063144445
O -2.417977095 -7.531582832 1.065143228
N -0.511974752 -2.081584215 7.001133919
C -0.189974129 -1.640584946 8.364141464
C -0.558973908 -2.802584887 9.290143967
O -1.557974100 -3.517585039 9.053144455
C -0.915974736 -0.330584943 8.735143661
C -2.437977552 -0.354585230 8.574140549
S -3.326977491 1.131414890 9.148145676
C -4.988970757 0.469416112 8.938146591
N -3.903976202 -4.839585304 7.572133064
C -4.943970680 -4.073586464 6.841137886
C -4.290970802 -3.318583727 5.663136482
O -3.232975721 -2.647584200 5.824131966
C -5.699971199 -3.099583864 7.795132637
C -6.450970650 -2.032584429 7.032132149
C -6.671971321 -3.879588604 8.691144943
N -4.897971153 -3.456584692 4.478131294
C -4.400971413 -2.776583910 3.280139208
C -4.477971077 -1.253586054 3.364138842
O -5.482970238 -0.679584622 3.854143858
N -3.405976057 -0.617586255 2.919139147
C -3.350975752 0.830416203 2.686137438
C -3.404976606 1.165415049 1.207140803
O -3.014977217 0.373415440 0.379137993
C -2.065975428 1.414415121 3.258143663
C -2.033975363 1.495414734 4.793133736
C -0.701975584 2.065414667 5.281132698
C -3.192976713 2.337415457 5.312130928
N -3.882976294 2.360414743 0.881137729
C -3.876975775 2.872416258 -0.491856009
C -3.285977125 4.287414551 -0.463856220
O -3.502976179 5.039414406 0.529139638
C -5.307971001 2.890415907 -1.080861211
C -5.891970634 1.497415543 -1.239857793
C -5.846970558 0.848415732 -2.465862989
C -6.465971947 0.811415195 -0.154858559
C -6.375971794 -0.430585682 -2.630856276
C -6.995970726 -0.459585011 -0.301861644
C -6.943970680 -1.084584951 -1.548863292
O -7.425971031 -2.377583742 -1.748861432
N -2.534975767 4.637414932 -1.523861766
C -2.082975626 6.016413689 -1.741857409
C -3.040976286 6.877413750 -2.607861280
O -3.513975859 6.437413216 -3.663859129
C -0.709975123 6.013413429 -2.401859999
O -0.334974527 7.346413612 -2.700855970
N -0.077974655 8.375413895 -5.476862907
C 0.946025491 7.574414253 -6.127863884
C 0.336025804 6.354413033 -6.770861626
O -0.763974071 5.971413612 -6.437869072
C 2.073023081 7.203413963 -5.141863823
C 2.875023127 8.400413513 -4.654864311
S 4.226028442 7.966414452 -3.534863234
C 3.326023340 7.002413750 -2.322857618
N 1.042026043 5.773413658 -7.725858688
C 0.580025077 4.575414658 -8.409860611
C 1.333025932 3.396416426 -7.764861107
O 2.539023638 3.478415251 -7.481867790
C 0.865024924 4.688415527 -9.922853470
N 0.606024861 2.324414968 -7.490862846
C 1.155026913 1.148414850 -6.840868950
C 1.600025892 0.096415102 -7.875862122
O 0.797025084 -0.361585200 -8.710855484
C 0.089025937 0.543415546 -5.911868095
C 0.498025715 -0.814584970 -5.336863518
C 0.019025337 -2.061583757 -5.700861931
C 1.490025282 -1.044584274 -4.321864128
N 0.658024907 -3.039584875 -4.961863518
C 1.568025351 -2.443583727 -4.118868828
C 2.331023455 -0.196584150 -3.572857618
C 2.438023806 -3.015584707 -3.171856642
C 3.208023310 -0.753586233 -2.647862196
C 3.241023302 -2.164584398 -2.440861464
N 2.862023592 -0.310584486 -7.809859276
C 3.292022943 -1.437586308 -8.631853104
C 3.592023134 -2.652585268 -7.773864746
O 4.598029137 -2.660584688 -7.024867058
C 4.493028641 -1.122585535 -9.524858475
C 4.539029121 -2.147584200 -10.640855789
C 4.365028381 0.267414451 -10.125856400
N 2.690023661 -3.647584677 -7.882862091
C 2.736023188 -4.911585808 -7.134867668
C 4.138028145 -5.500586510 -7.129862785
O 4.757028580 -5.647585869 -6.061861992
N 7.240028381 -3.932586432 -5.253863335
C 6.771028519 -3.565586329 -3.889862776
C 6.865028381 -2.060584307 -3.581860304
O 7.485029221 -1.641584396 -2.583859205
C 7.508028984 -4.393586159 -2.793858290
C 7.046029091 -4.057585716 -1.366856456
O 5.857028961 -4.042586327 -1.067860723
N 7.998028278 -3.767585993 -0.486858755
N 6.257028580 -1.239586115 -4.433863640
C 6.390028954 0.196415305 -4.236865044
C 5.268029213 1.001415610 -4.822863579
O 4.541028976 0.520414829 -5.717867851
C 7.771028519 0.722414315 -4.700861931
C 8.008027077 0.599415123 -6.203867912
O 7.141028404 0.210415199 -6.986865044
N 9.206023216 0.963415384 -6.608866692
N 5.104028702 2.201414347 -4.267863274
C 4.231028557 3.215414762 -4.864863396
C 5.175028801 4.237415314 -5.469866753
O 6.249029160 4.504415512 -4.904864311
C 3.402023554 3.964415312 -3.813866377
C 2.196022749 3.272415876 -3.191860914
C 0.987026036 3.034415007 -3.775861502
C 2.088023901 2.794415712 -1.842861295
N 0.143025979 2.409415007 -2.889858961
C 0.796025634 2.260414362 -1.689862609
C 2.973023653 2.745415926 -0.756855369
C 0.355025887 1.693414688 -0.480862081
C 2.530023813 2.188416243 0.440142721
C 1.234026432 1.668415070 0.561137378
N -2.298975706 8.613412857 3.004138231
C -2.279976606 7.140414238 2.979144335
C -3.497977018 6.610413551 3.751139402
O -3.607975721 6.756413460 4.976132393
C -0.956975341 6.535414696 3.506137133
C 0.332025111 6.526413918 2.641139269
C 1.499026060 5.892413139 3.388140917
C 0.175025553 5.856413841 1.285143971
N -4.416970253 5.985413551 3.023143053
C -5.763970375 5.819413185 3.548136473
C -6.267971992 4.372414589 3.477137804
O -5.687972069 3.542416334 2.776141405
C -6.736971855 6.798413277 2.819140673
C -7.030970573 6.424414635 1.359141707
C -8.158974648 5.683413506 1.033137679
C -6.148970604 6.790413857 0.321139365
C -8.434977531 5.332413673 -0.282856613
C -6.381970406 6.420413017 -1.014859200
C -7.533970833 5.697413445 -1.306858897
O -7.808969498 5.332413673 -2.588856459
