195

S 1.776119590 1.746016145 0.317203641
I 1.233179808 0.594188750 0.613398850
I 0.598554254 1.749472141 0.309648663
C -2.208720684 -1.348811388 -2.090414047
Cl -0.102776125 -1.451969624 -0.554074466
B 0.737612724 2.466643572 0.971027732
C -0.059796721 -1.348584414 -0.332239062
F -2.888918877 -1.492804408 -1.395164490
I 0.266266376 -0.634035707 -2.584379196
B -0.109919600 -0.807831168 0.084675059
B 2.446151018 0.654164910 1.166452646
B -1.206403852 -2.812481165 -0.244327590
F -2.407852650 -1.404620409 -0.042433623
Cl -1.183524847 -0.885528803 -0.992727578
N 1.813332081 0.436685801 0.888841927
F -0.558889747 -3.464485407 -2.441919327
N 0.264060080 2.310944319 2.195367336
P 1.348268867 1.910680413 -0.301211476
F -1.503924131 1.281470656 0.740401626
N 1.747182012 2.500885963 3.691873074
N 7.039041996 -0.454354912 0.912405193
C 6.628042698 -1.105355620 2.153409481
C 7.670042515 -2.132354498 2.663404465
O 7.756042004 -3.226353407 2.111402512
C 5.313042164 -1.824355841 1.771405816
C 4.859042645 -1.188353896 0.518407643
C 6.068042278 -0.649354517 -0.178590789
N 5.166042805 -4.399355412 6.897403717
C 4.346042156 -3.669355154 5.942401886
C 4.433042049 -4.165355206 4.483402252
O 3.764039278 -3.606354475 3.608403683
C 4.652041912 -2.169354677 6.039402008
O 4.117041111 -1.600354671 7.243404388
N 5.223042011 -5.213356495 4.215403557
C 5.430042744 -5.724356174 2.836408615
C 4.140042305 -5.970354557 2.030408859
O 3.156039476 -6.500357151 2.546407700
C 6.302042484 -6.989355564 2.854406357
C 7.067041874 -7.239355564 1.561407208
C 7.977041721 -8.463352203 1.628408313
C 8.740038872 -8.679351807 0.316404164
N 7.946040630 -8.427352905 -0.929590464
N 4.143042088 -5.580355167 0.761404037
C 2.956039667 -5.727356434 -0.082590222
C 1.895040154 -4.655355930 0.155408815
O 0.803040743 -4.755356312 -0.404596150
N 2.192038774 -3.651354790 0.997404456
C 1.279042125 -2.503353834 1.238409162
C 0.257041365 -2.656353712 2.374403000
O -0.966960073 -2.452355146 2.173406124
N 0.771041393 -2.996353865 3.566403866
C -0.017958349 -3.312353849 4.766407013
C 0.414041042 -2.560354948 5.997402191
O 1.555041671 -2.116355896 6.109401703
C 0.041041642 -4.813354969 5.084407806
C -0.597958207 -5.638355732 4.007405281
C -1.990958571 -5.766355991 3.947408199
C 0.180041581 -6.279356480 3.029409409
C -2.598961592 -6.518354893 2.946409225
C -0.415958881 -7.028357029 2.022405624
C -1.807959199 -7.137354374 1.987409234
O -2.432961226 -7.866352558 0.989408910
N -0.526959062 -2.416353941 6.925403595
C -0.204958528 -1.975354433 8.288407326
C -0.573958039 -3.137354612 9.214408875
O -1.572958589 -3.852355003 8.977409363
C -0.930958748 -0.665355265 8.659408569
C -2.452961683 -0.689355433 8.498405457
S -3.341961622 0.796644747 9.072410583
C -5.003957272 0.134646073 8.862411499
N -3.918960571 -5.174355030 7.496402740
C -4.958957195 -4.408356190 6.765407562
C -4.305957317 -3.653353691 5.587406158
O -3.247959852 -2.982353926 5.748401642
C -5.714957714 -3.434353590 7.719402313
C -6.465957165 -2.367354155 6.956401825
C -6.686957836 -4.214356422 8.615409851
N -4.912957668 -3.791354656 4.402400970
C -4.415957928 -3.111353636 3.204404831
C -4.492957592 -1.588355541 3.288404465
O -5.497956753 -1.014354229 3.778409481
N -3.420960188 -0.952356160 2.843404770
C -3.365959883 0.495646209 2.610403061
C -3.419960737 0.830644906 1.131406903
O -3.029961348 0.038645480 0.303403676
C -2.080959558 1.079645634 3.182409286
C -2.048959494 1.160645247 4.717403412
C -0.716959715 1.730644941 5.205402374
C -3.207960844 2.002646446 5.236400604
N -3.897961140 2.025645018 0.805402935
C -3.891960144 2.537646532 -0.567590535
C -3.300961256 3.952644348 -0.539590716
O -3.517960310 4.704644680 0.453405172
C -5.322957516 2.555646181 -1.156595588
C -5.906957150 1.162646055 -1.315592170
C -5.861957073 0.513645828 -2.541597366
C -6.480958462 0.476645321 -0.230592757
C -6.390958309 -0.765355647 -2.706590652
C -7.010957241 -0.794354975 -0.377595782
C -6.958957195 -1.419354439 -1.624597669
O -7.440957546 -2.712353468 -1.824595094
N -2.549959898 4.302645206 -1.599596143
C -2.097959757 5.681643963 -1.817591310
C -3.055960417 6.542644024 -2.683595657
O -3.528959990 6.102643490 -3.739593506
C -0.724959254 5.678643703 -2.477594376
O -0.349958897 7.011643887 -2.776590347
N -0.092959009 8.040643692 -5.552593231
C 0.931041360 7.239644527 -6.203594208
C 0.321041465 6.019643307 -6.846591949
O -0.778958201 5.636643887 -6.513599396
C 2.058039427 6.868644238 -5.217594147
C 2.860038996 8.065645218 -4.730594635
S 4.211041927 7.631644726 -3.610597610
C 3.311039209 6.667644024 -2.398591995
N 1.027040958 5.438643932 -7.801591873
C 0.565040946 4.240644932 -8.485595703
C 1.318041444 3.061646700 -7.840595245
O 2.524039507 3.143645525 -7.557598114
C 0.850040793 4.353645802 -9.998588562
N 0.591040730 1.989645958 -7.566593170
C 1.140042186 0.813644826 -6.916599274
C 1.585041404 -0.238354966 -7.951595306
O 0.782040954 -0.696355402 -8.786590576
C 0.074041612 0.208645388 -5.987598419
C 0.483041406 -1.149354339 -5.412593842
C 0.004041011 -2.396353483 -5.776592255
C 1.475040793 -1.379353762 -4.397594452
N 0.643040895 -3.374354601 -5.037593842
C 1.553040862 -2.778353453 -4.194599152
C 2.316039324 -0.531354487 -3.648591995
C 2.423039675 -3.350354433 -3.247591019
C 3.193039179 -1.088355541 -2.723596573
C 3.226039171 -2.499354124 -2.516595840
N 2.847039461 -0.645354807 -7.885593414
C 3.277038813 -1.772355795 -8.707588196
C 3.577039003 -2.987354994 -7.849597931
O 4.583042622 -2.995354414 -7.100597382
C 4.478042126 -1.457355022 -9.600593567
C 4.524042606 -2.482353926 -10.716590881
C 4.350041866 -0.067355573 -10.201591492
N 2.675039530 -3.982354403 -7.958595276
C 2.721039057 -5.246355534 -7.210597992
C 4.123041630 -5.835356236 -7.205593109
O 4.742042065 -5.982355595 -6.137592316
N 7.225041866 -4.267355442 -5.329593658
C 6.756042004 -3.900356531 -3.965594292
C 6.850041866 -2.395354033 -3.657594681
O 7.470042706 -1.976353884 -2.659593582
C 7.493042469 -4.728355885 -2.869592667
C 7.031042576 -4.392355442 -1.442590833
O 5.842042446 -4.377356052 -1.143595099
N 7.983041286 -4.102355003 -0.562593281
N 6.242042065 -1.574355602 -4.509593964
C 6.375042439 -0.138354674 -4.312595367
C 5.253042698 0.666645586 -4.898593903
O 4.526042461 0.185644686 -5.793598175
C 7.756042004 0.387644470 -4.776592255
C 7.993041039 0.264645040 -6.279598236
O 7.126041889 -0.124354765 -7.062595367
N 9.191039085 0.628645360 -6.684597015
N 5.089042187 1.866644859 -4.343593597
C 4.216042042 2.880645037 -4.940593719
C 5.160042286 3.902644634 -5.545597076
O 6.234042645 4.169645786 -4.980594635
C 3.387039423 3.629645586 -3.889598370
C 2.181039095 2.937646151 -3.267595291
C 0.972041726 2.699645281 -3.851594925
C 2.073039770 2.459645748 -1.918596387
N 0.128041551 2.074645042 -2.965593338
C 0.781041503 1.925645351 -1.765596986
C 2.958039522 2.410645962 -0.832590342
C 0.340041578 1.358645201 -0.556596637
C 2.515039682 1.853646278 0.364408314
C 1.219041705 1.333645582 0.485402912
N -2.313959837 8.278642654 2.928403854
C -2.294960737 6.805644512 2.903409958
C -3.512961149 6.275643826 3.675405025
O -3.622959852 6.421643734 4.900402069
C -0.971958876 6.200644970 3.430402756
C 0.317040801 6.191644192 2.565404892
C 1.484041572 5.557643414 3.312406540
C 0.160041183 5.521644115 1.209409595
N -4.431956768 5.650643826 2.947408676
C -5.778956890 5.484643459 3.472402096
C -6.282958508 4.037644863 3.401403427
O -5.702958584 3.207646608 2.700407028
C -6.751958370 6.463643551 2.743406296
C -7.045957088 6.089644909 1.283407331
C -8.173957825 5.348643780 0.957403243
C -6.163957119 6.455644131 0.245405093
C -8.449961662 4.997643948 -0.358590841
C -6.396956921 6.085643291 -1.090593696
C -7.548957348 5.362643719 -1.382593274
O -7.823956966 4.997643948 -2.664590836
