195

S 0.979302526 1.605437994 -0.233891979
B 0.923525512 0.616375864 1.109020710
N 0.940808654 1.536381602 -0.561794639
P -1.590635061 -1.625485182 -2.186537981
Cl -0.015296233 -1.666622639 -0.643523753
B 0.980214238 2.240938425 1.351314425
C 0.137479231 -1.238501787 -0.429692954
F -2.072885990 -1.988365054 -1.081089139
F -0.188494638 -0.629839063 -2.215051174
B 0.166009516 -0.670331478 0.376663417
B 2.090712547 0.608677864 1.472515702
C -1.109916925 -2.411012650 -0.426975638
B -1.441199780 -1.498228550 0.215182632
Cl -1.982778430 -0.611751080 -0.691081524
O 1.646961570 0.116516374 0.714479387
F -0.294770807 -2.454182863 -2.005513430
N 0.131556123 2.512911081 1.977309465
P 0.725435972 1.547329068 -1.216551542
F -1.308282495 1.396758914 0.559262455
I 1.282254696 2.612993002 3.915955544
N 7.005227089 -0.278804809 0.989512384
C 6.594227791 -0.929805756 2.230516672
C 7.636227608 -1.956804633 2.740511656
O 7.722227097 -3.050803661 2.188509703
C 5.279227257 -1.648805976 1.848513246
C 4.825227737 -1.012804151 0.595514894
C 6.034227371 -0.473804474 -0.101483539
N 5.132227898 -4.223805428 6.974511147
C 4.312227249 -3.493805408 6.019509315
C 4.399227142 -3.989804983 4.560509682
O 3.730225325 -3.430804729 3.685510874
C 4.618227005 -1.993804693 6.116509438
O 4.083226204 -1.424804807 7.320511818
N 5.189227104 -5.037806511 4.292511463
C 5.396227837 -5.548806190 2.913515806
C 4.106227398 -5.794804573 2.107516050
O 3.122225523 -6.324807167 2.623514891
C 6.268227577 -6.813805580 2.931513548
C 7.033226967 -7.063805580 1.638514638
C 7.943226814 -8.287800789 1.705515742
C 8.706224442 -8.503800392 0.393511415
N 7.912225723 -8.251801491 -0.852483273
N 4.109227180 -5.404805183 0.838511229
C 2.922225714 -5.551806450 -0.005482953
C 1.861225724 -4.479805946 0.232516065
O 0.769226134 -4.579806328 -0.327488899
N 2.158224821 -3.475805044 1.074511647
C 1.245227695 -2.327804089 1.315516591
C 0.223226830 -2.480803967 2.451510191
O -1.000774384 -2.276805401 2.250513315
N 0.737226784 -2.820804119 3.643511057
C -0.051772885 -3.136804104 4.843514442
C 0.380226403 -2.384805202 6.074509621
O 1.521227241 -1.940805793 6.186509132
C 0.007227092 -4.637804985 5.161515236
C -0.631772816 -5.462805748 4.084513187
C -2.024772882 -5.590806007 4.024515152
C 0.146227062 -6.103806496 3.106516600
C -2.632775545 -6.342804909 3.023516417
C -0.449773580 -6.852807045 2.099512815
C -1.841773629 -6.961804390 2.064516783
O -2.466775179 -7.690802574 1.066516042
N -0.560773671 -2.240804195 7.002511024
C -0.238773078 -1.799804568 8.365515709
C -0.607772648 -2.961804867 9.291517258
O -1.606773019 -3.676805258 9.054517746
C -0.964773238 -0.489805222 8.736516953
C -2.486775637 -0.513805389 8.575513840
S -3.375775576 0.972194791 9.149518967
C -5.037772179 0.310196161 8.939519882
N -3.952774763 -4.998805046 7.573510170
C -4.992772102 -4.232806206 6.842514992
C -4.339772224 -3.477803946 5.664513588
O -3.281773806 -2.806804180 5.825509071
C -5.748772621 -3.258803844 7.796509743
C -6.499772072 -2.191804409 7.033509254
C -6.720772743 -4.038805962 8.692518234
N -4.946772575 -3.615804911 4.479508400
C -4.449772835 -2.935803890 3.281512022
C -4.526772499 -1.412805676 3.365511656
O -5.531771660 -0.838804185 3.855516672
N -3.454774141 -0.776806116 2.920511961
C -3.399773836 0.671196282 2.687510252
C -3.453774691 1.006194949 1.208514333
O -3.063775301 0.214195549 0.380510926
C -2.114773512 1.255195498 3.259516478
C -2.082773447 1.336195111 4.794510841
C -0.750774324 1.906194806 5.282509804
C -3.241774797 2.178196192 5.313508034
N -3.931774855 2.201194763 0.882510126
C -3.925773859 2.713196278 -0.490483344
C -3.334775209 4.128193855 -0.462483466
O -3.551774263 4.880194664 0.530512393
C -5.356772423 2.731195927 -1.079488158
C -5.940772057 1.338195920 -1.238484740
C -5.895771980 0.689195931 -2.464490175
C -6.514773369 0.652195334 -0.153485522
C -6.424773216 -0.589805543 -2.629483461
C -7.044772148 -0.618804932 -0.300488532
C -6.992772102 -1.243804574 -1.547490239
O -7.474772453 -2.536803722 -1.747487664
N -2.583773851 4.478195190 -1.522488713
C -2.131773710 5.857193947 -1.740483880
C -3.089774370 6.718194008 -2.606488466
O -3.562773943 6.278193474 -3.662486315
C -0.758773863 5.854193687 -2.400487185
O -0.383773535 7.187193871 -2.699483156
N -0.126773581 8.216195107 -5.475485802
C 0.897226751 7.415194511 -6.126486778
C 0.287226856 6.195193291 -6.769484520
O -0.812772810 5.812193871 -6.436491966
C 2.024225473 7.044194221 -5.140486717
C 2.826225042 8.241196632 -4.653487206
S 4.177227020 7.807194710 -3.533490419
C 3.277225256 6.843194008 -2.321484804
N 0.993226469 5.614193916 -7.724484444
C 0.531226337 4.416194916 -8.408487320
C 1.284227014 3.237196445 -7.763487816
O 2.490225554 3.319195271 -7.480490685
C 0.816226184 4.529195786 -9.921480179
N 0.557226181 2.165195704 -7.489485741
C 1.106227756 0.989194870 -6.839491844
C 1.551226974 -0.062804915 -7.874487400
O 0.748226345 -0.520805359 -8.709482193
C 0.040227067 0.384195507 -5.910490990
C 0.449226767 -0.973804474 -5.335486412
C -0.029773541 -2.220803738 -5.699484825
C 1.441226363 -1.203803897 -4.320487022
N 0.609226286 -3.198804855 -4.960486412
C 1.519226432 -2.602803707 -4.117491722
C 2.282225370 -0.355804384 -3.571484804
C 2.389225721 -3.174804688 -3.170483828
C 3.159225225 -0.912805617 -2.646489382
C 3.192225218 -2.323804379 -2.439488649
N 2.813225508 -0.469804764 -7.808485985
C 3.243224859 -1.596805930 -8.630479813
C 3.543225050 -2.811805248 -7.772490025
O 4.549227715 -2.819804668 -7.023489952
C 4.444227219 -1.281805158 -9.523485184
C 4.490227699 -2.306804180 -10.639482498
C 4.316226959 0.108194500 -10.124483109
N 2.641225576 -3.806804657 -7.881487370
C 2.687225103 -5.070805550 -7.133490562
C 4.089226723 -5.659806252 -7.128485680
O 4.708227158 -5.806805611 -6.060484886
N 7.191226959 -4.091805458 -5.252486229
C 6.722227097 -3.724806786 -3.888487101
C 6.816226959 -2.219804287 -3.580487490
O 7.436227798 -1.800804019 -2.582486391
C 7.459227562 -4.552805901 -2.792485476
C 6.997227669 -4.216805458 -1.365483403
O 5.808227539 -4.201806068 -1.066487670
N 7.949226379 -3.926805258 -0.485486090
N 6.208227158 -1.398805737 -4.432486534
C 6.341227531 0.037195407 -4.235487938
C 5.219227791 0.842195630 -4.821486473
O 4.492227554 0.361194789 -5.716490746
C 7.722227097 0.563194513 -4.699484825
C 7.959225655 0.440195143 -6.202490807
O 7.092226982 0.051195316 -6.985487938
N 9.157224655 0.804195404 -6.607489586
N 5.055227280 2.042194605 -4.266486168
C 4.182227135 3.056194782 -4.863486290
C 5.126227379 4.078194618 -5.468489647
O 6.200227737 4.345195770 -4.903487206
C 3.353225470 3.805195332 -3.812491179
C 2.147225142 3.113195896 -3.190488100
C 0.938227117 2.875195026 -3.774487734
C 2.039225817 2.635195494 -1.841488957
N 0.094227009 2.250194788 -2.888486147
C 0.747226894 2.101194859 -1.688489556
C 2.924225569 2.586195707 -0.755483150
C 0.306226969 1.534195065 -0.479489386
C 2.481225729 2.029196024 0.441515565
C 1.185227275 1.509195447 0.562510133
N -2.347773790 8.454194069 3.005511045
C -2.328774691 6.981194496 2.980517149
C -3.546775103 6.451193810 3.752512217
O -3.656773806 6.597193718 4.977509499
C -1.005773425 6.376194954 3.507509947
C 0.283226192 6.367194176 2.642512083
C 1.450227141 5.733193398 3.389513731
C 0.126226649 5.697194099 1.286517024
N -4.465771675 5.826193810 3.024515867
C -5.812771797 5.660193443 3.549509287
C -6.316773415 4.213194847 3.478510618
O -5.736773491 3.383196354 2.777514219
C -6.785773277 6.639193535 2.820513487
C -7.079771996 6.265194893 1.360514760
C -8.207772255 5.524193764 1.034510493
C -6.197772026 6.631194115 0.322512388
C -8.483776093 5.173193932 -0.281483591
C -6.430771828 6.261193275 -1.013486266
C -7.582772255 5.538193703 -1.305485845
O -7.857771873 5.173193932 -2.587483644
