195

S 1.063812017 1.323976278 -0.233549818
B 0.957090795 0.233585343 1.490779996
C 1.082726955 1.429965734 -0.473080635
P -1.526913643 -1.656774521 -2.036108971
Cl -0.040263444 -1.683359385 -0.868234873
B 0.796622515 1.822359800 1.270251870
C 0.016788544 -1.183689356 -0.481978804
F -1.945327282 -1.830468416 -0.962185085
F -0.277604848 -0.061090104 -1.825036407
B -0.018144913 -0.646311283 0.639615893
B 2.177819490 0.723473549 1.410384417
C -0.741752267 -2.175025225 -0.415607482
B -1.565930128 -1.760180712 0.060284443
Cl -1.588556051 -0.904248297 -0.840329885
O 1.649840355 0.532766938 0.421089292
F -0.283151388 -2.630224943 -2.231810093
N 0.012866411 2.529654741 1.908253193
P 0.257201910 1.719344854 -1.355073810
F -1.359877586 1.372971773 0.470904887
I 1.332752228 2.843274117 4.051432133
N 6.999687672 -0.268043280 0.912480116
C 6.588688374 -0.919044256 2.153484344
C 7.630688190 -1.946043015 2.663479328
O 7.716687679 -3.040042400 2.111477375
C 5.273687840 -1.638044357 1.771480799
C 4.819688320 -1.002042532 0.518482625
C 6.028687954 -0.463042945 -0.178515822
N 5.126688480 -4.213043690 6.897479057
C 4.306687832 -3.483044147 5.942477226
C 4.393687725 -3.979043722 4.483477592
O 3.724685669 -3.420043468 3.608478546
C 4.612687588 -1.983043194 6.039477348
O 4.077686787 -1.414043188 7.243479729
N 5.183687687 -5.027044773 4.215479374
C 5.390688419 -5.538044453 2.836483479
C 4.100687981 -5.784042835 2.030483723
O 3.116685867 -6.314045429 2.546482563
C 6.262688160 -6.803043842 2.854481220
C 7.027687550 -7.053043842 1.561482191
C 7.937687397 -8.277039528 1.628483295
C 8.700685501 -8.493039131 0.316479117
N 7.906686306 -8.241040230 -0.929515541
N 4.103687763 -5.394043446 0.761478961
C 2.916686058 -5.541044712 -0.082515232
C 1.855685949 -4.469044209 0.155483797
O 0.763686419 -4.569044590 -0.404521197
N 2.152685165 -3.465043783 0.997479200
C 1.239687920 -2.317042828 1.238484144
C 0.217687145 -2.470042706 2.374477863
O -1.006314039 -2.266044140 2.173480988
N 0.731687069 -2.810042858 3.566478729
C -0.057312593 -3.126042843 4.766482353
C 0.374686718 -2.374043941 5.997477531
O 1.515687466 -1.930044174 6.109477043
C 0.001687390 -4.627043247 5.084483147
C -0.637312531 -5.452044010 4.007481098
C -2.030312538 -5.580044270 3.947483063
C 0.140687376 -6.093044758 3.029484272
C -2.638315201 -6.332043171 2.946484089
C -0.455313265 -6.842045307 2.022480488
C -1.847313404 -6.951042652 1.987484455
O -2.472314835 -7.680040836 0.989483595
N -0.566313386 -2.230042934 6.925478935
C -0.244312763 -1.789042950 8.288483620
C -0.613312364 -2.951043606 9.214485168
O -1.612312794 -3.666043997 8.977485657
C -0.970312953 -0.479043722 8.659484863
C -2.492315292 -0.503043890 8.498481750
S -3.381315231 0.982956290 9.072486877
C -5.043311596 0.320957690 8.862487793
N -3.958314419 -4.988043308 7.496478081
C -4.998311520 -4.222044468 6.765482903
C -4.345311642 -3.467042685 5.587481499
O -3.287313461 -2.796042919 5.748476982
C -5.754312038 -3.248042583 7.719477654
C -6.505311489 -2.181043148 6.956477165
C -6.726312160 -4.028044224 8.615486145
N -4.952311993 -3.605043650 4.402476311
C -4.455312252 -2.925042629 3.204479694
C -4.532311916 -1.402044058 3.288479328
O -5.537311077 -0.828042686 3.778484344
N -3.460313797 -0.766044617 2.843479633
C -3.405313492 0.681957781 2.610477924
C -3.459314346 1.016956568 1.131481886
O -3.069314957 0.224957079 0.303478628
C -2.120313168 1.265957117 3.182484150
C -2.088313103 1.346956730 4.717478752
C -0.756314039 1.916956425 5.205477715
C -3.247314453 2.188957453 5.236475945
N -3.937314510 2.211956024 0.805477858
C -3.931313515 2.723957539 -0.567515612
C -3.340314865 4.138955593 -0.539515734
O -3.557313919 4.890956402 0.453480124
C -5.362311840 2.741957188 -1.156520605
C -5.946311474 1.348957539 -1.315517187
C -5.901311398 0.699957430 -2.541522503
C -6.520312786 0.662956834 -0.230517805
C -6.430312634 -0.579044044 -2.706515789
C -7.050311565 -0.608043432 -0.377520829
C -6.998311520 -1.233042955 -1.624522686
O -7.480311871 -2.526042461 -1.824520111
N -2.589313507 4.488956928 -1.599521160
C -2.137313366 5.867955685 -1.817516327
C -3.095314026 6.728955746 -2.683520794
O -3.568313599 6.288955212 -3.739518642
C -0.764313579 5.864955425 -2.477519512
O -0.389313221 7.197955608 -2.776515484
N -0.132313266 8.226956367 -5.552517891
C 0.891687036 7.425956249 -6.203518867
C 0.281687170 6.205955029 -6.846516609
O -0.818312526 5.822955608 -6.513524055
C 2.018685818 7.054955959 -5.217518806
C 2.820685387 8.251957893 -4.730519295
S 4.171687603 7.817956448 -3.610522747
C 3.271685600 6.853955746 -2.398517132
N 0.987686753 5.624955654 -7.801516533
C 0.525686622 4.426956654 -8.485519409
C 1.278687239 3.247957706 -7.840519905
O 2.484685898 3.329956532 -7.557522774
C 0.810686469 4.539957523 -9.998512268
N 0.551686466 2.175956964 -7.566517830
C 1.100687981 0.999956369 -6.916523933
C 1.545687199 -0.052043386 -7.951519489
O 0.742686629 -0.510043859 -8.786514282
C 0.034687363 0.394957036 -5.987523079
C 0.443687081 -0.963042974 -5.412518501
C -0.035313249 -2.210042477 -5.776516914
C 1.435686588 -1.193042278 -4.397519112
N 0.603686571 -3.188043594 -5.037518501
C 1.513686657 -2.592042446 -4.194523811
C 2.276685715 -0.345042855 -3.648517132
C 2.383686066 -3.164043427 -3.247516155
C 3.153685570 -0.902044117 -2.723521709
C 3.186685562 -2.313043118 -2.516520977
N 2.807685852 -0.459043235 -7.885518074
C 3.237685204 -1.586044312 -8.707511902
C 3.537685394 -2.801043987 -7.849522114
O 4.543688297 -2.809043407 -7.100522041
C 4.438687801 -1.271043539 -9.600517273
C 4.484688282 -2.296042919 -10.716514587
C 4.310687542 0.118956022 -10.201515198
N 2.635685921 -3.796043396 -7.958519459
C 2.681685448 -5.060043812 -7.210522652
C 4.083687305 -5.649044514 -7.205517769
O 4.702687740 -5.796043873 -6.137516975
N 7.185687542 -4.081043720 -5.329518318
C 6.716687679 -3.714045525 -3.965519428
C 6.810687542 -2.209043026 -3.657519817
O 7.430688381 -1.790042400 -2.659518719
C 7.453688145 -4.542044163 -2.869517803
C 6.991688251 -4.206043720 -1.442515850
O 5.802688122 -4.191044331 -1.143520117
N 7.943686962 -3.916043997 -0.562518358
N 6.202687740 -1.388044119 -4.509518623
C 6.335688114 0.047956929 -4.312520027
C 5.213688374 0.852957129 -4.898518562
O 4.486688137 0.371956319 -5.793522835
C 7.716687679 0.573956013 -4.776516914
C 7.953686237 0.450956672 -6.279522896
O 7.086687565 0.061956838 -7.062520027
N 9.151685715 0.814956903 -6.684521675
N 5.049687862 2.052955866 -4.343518257
C 4.176687717 3.066956043 -4.940518379
C 5.120687962 4.088956356 -5.545521736
O 6.194688320 4.355957508 -4.980519295
C 3.347685814 3.815956593 -3.889523506
C 2.141685486 3.123957157 -3.267520428
C 0.932687402 2.885956287 -3.851520061
C 2.033686161 2.645956755 -1.918521404
N 0.088687301 2.260956049 -2.965518475
C 0.741687179 2.111956120 -1.765522003
C 2.918685913 2.596956968 -0.832515419
C 0.300687283 1.544956684 -0.556521654
C 2.475686073 2.039957285 0.364483267
C 1.179687500 1.519957066 0.485477865
N -2.353313446 8.464955330 2.928478718
C -2.334314346 6.991956234 2.903484821
C -3.552314758 6.461955547 3.675479889
O -3.662313461 6.607955456 4.900477409
C -1.011313200 6.386956692 3.430477619
C 0.277686507 6.377955914 2.565479755
C 1.444687366 5.743955135 3.312481403
C 0.120686933 5.707955837 1.209484577
N -4.471311092 5.836955547 2.947483540
C -5.818311214 5.670955181 3.472476959
C -6.322312832 4.223956585 3.401478291
O -5.742312908 3.393957615 2.700481892
C -6.791312695 6.649955273 2.743481159
C -7.085311413 6.275956631 1.283482313
C -8.213311195 5.534955502 0.957478285
C -6.203311443 6.641955853 0.245480090
C -8.489315033 5.183955669 -0.358515888
C -6.436311245 6.271955013 -1.090518713
C -7.588311672 5.548955441 -1.382518291
O -7.863311291 5.183955669 -2.664515972
