195

Br 2.903932333 1.844317555 0.183587655
P 2.390289545 2.089863300 1.830218315
S 1.589858413 1.636525273 1.414051414
B -2.129294395 -2.045460224 -3.328917980
Cl -1.433415294 -2.206059694 -2.165189028
N 0.704027832 2.260881901 0.281112492
F -1.535724640 -1.585098505 -1.305886626
I -2.038052082 -2.847071409 -1.196404099
Br -0.749316633 -0.560825884 -2.468748808
Cl 0.510788620 0.250597298 -0.304814607
B 2.371270657 2.049116850 1.320795894
B -3.488910913 -2.934255362 -0.127391428
O -2.227267265 -2.862078905 -0.040572356
S -2.290203810 -1.803245306 0.619533539
I 1.310229182 1.005957842 1.520379543
F -0.842551172 -2.928050518 -2.715730429
N 1.709988713 2.912580013 3.537469864
I 2.378473759 1.797761559 -0.906524420
P -1.525771976 1.384844899 -0.898041427
I 2.391648531 2.539697886 4.751071930
N 6.853597641 -0.342962772 0.885579169
C 6.442598343 -0.993963897 2.126584053
C 7.484598160 -2.020962715 2.636578560
O 7.570597649 -3.114961624 2.084576607
C 5.127597809 -1.712964296 1.744580030
C 4.673598289 -1.076962233 0.491581500
C 5.882597923 -0.537962198 -0.205416963
N 4.980598450 -4.287963390 6.870574474
C 4.160597801 -3.557963371 5.915572643
C 4.247597694 -4.053963184 4.456573009
O 3.578593493 -3.494962692 3.581577778
C 4.466597557 -2.057962894 6.012572765
O 3.931596994 -1.488963127 7.216575146
N 5.037597656 -5.101964474 4.188575268
C 5.244598389 -5.612964153 2.809582710
C 3.954598188 -5.858962536 2.003583193
O 2.970593691 -6.388965130 2.519581795
C 6.116598129 -6.877963543 2.827580452
C 6.881597519 -7.127963543 1.534581423
C 7.791599274 -8.351960182 1.601582527
C 8.554593086 -8.567959785 0.289578080
N 7.760596275 -8.315960884 -0.956416368
N 3.957598448 -5.468963146 0.734578013
C 2.770593882 -5.615964413 -0.109416261
C 1.709594488 -4.543963909 0.128582761
O 0.617594957 -4.643964291 -0.431422204
N 2.006593227 -3.539962769 0.970578492
C 1.093596458 -2.391962051 1.211583376
C 0.071595810 -2.544961929 2.347577095
O -1.152406216 -2.340963364 2.146581173
N 0.585595608 -2.884962082 3.539577961
C -0.203403935 -3.200962067 4.739577770
C 0.228595451 -2.448963165 5.970572948
O 1.369596004 -2.004963875 6.082572460
C -0.144403964 -4.701962948 5.057578564
C -0.783403993 -5.526963711 3.980578423
C -2.176404238 -5.654963970 3.920582294
C -0.005404025 -6.167964458 3.002583504
C -2.784407377 -6.406962872 2.919583321
C -0.601404488 -6.916965008 1.995579958
C -1.993404984 -7.025962353 1.960583925
O -2.618407011 -7.754960537 0.962582886
N -0.712404609 -2.304962158 6.898574352
C -0.390404105 -1.863962889 8.261582375
C -0.759403825 -3.025962830 9.187584877
O -1.758404255 -3.740962982 8.950585365
C -1.116404533 -0.553962946 8.632584572
C -2.638407469 -0.577963114 8.471581459
S -3.527407408 0.908037066 9.045586586
C -5.189401627 0.246038154 8.835587502
N -4.104406834 -5.062963009 7.469573498
C -5.144401550 -4.296964169 6.738578320
C -4.491401672 -3.541961670 5.560576916
O -3.433405638 -2.870962143 5.721572399
C -5.900402069 -3.322961807 7.692573071
C -6.651401520 -2.255962372 6.929572582
C -6.872402191 -4.102964878 8.588585854
N -5.098402023 -3.679962635 4.375571728
C -4.601402283 -2.999961853 3.177578926
C -4.678401947 -1.476963997 3.261578560
O -5.683401108 -0.902962327 3.751583576
N -3.606405973 -0.840963960 2.816578865
C -3.551405668 0.607038498 2.583577156
C -3.605406523 0.942037225 1.104580641
O -3.215407133 0.150037542 0.276577562
C -2.266405344 1.191037178 3.155583382
C -2.234405279 1.272036791 4.690574169
C -0.902405500 1.842036486 5.178573132
C -3.393406630 2.114037514 5.209571362
N -4.083406925 2.137036800 0.778576910
C -4.077405930 2.649038315 -0.594416559
C -3.486407042 4.064036369 -0.566416740
O -3.703406096 4.816036701 0.426578939
C -5.508401871 2.667037964 -1.183421373
C -6.092401505 1.274037600 -1.342417955
C -6.047401428 0.625038028 -2.568423271
C -6.666402817 0.588037491 -0.257418931
C -6.576402664 -0.653963327 -2.733416557
C -7.196401596 -0.682962656 -0.404422104
C -7.144401550 -1.307962894 -1.651423454
O -7.626401901 -2.600961685 -1.851421595
N -2.735405684 4.414037228 -1.626421928
C -2.283405542 5.793035984 -1.844417572
C -3.241406202 6.654036045 -2.710421562
O -3.714405775 6.214035511 -3.766419411
C -0.910405040 5.790035725 -2.504420280
O -0.535404444 7.123035908 -2.803416252
N -0.278404564 8.152035713 -5.579422474
C 0.745595574 7.351036549 -6.230423450
C 0.135595903 6.131035328 -6.873421192
O -0.964403987 5.748035908 -6.540428638
C 1.872593641 6.980036259 -5.244423389
C 2.674593210 8.177035332 -4.757423878
S 4.025597572 7.743036747 -3.637423515
C 3.125593424 6.779036045 -2.425417900
N 0.841595829 5.550035954 -7.828418255
C 0.379595160 4.352036953 -8.512419701
C 1.132595778 3.173038483 -7.867420197
O 2.338593721 3.255037308 -7.584427357
C 0.664595008 4.465037823 -10.025412560
N 0.405594945 2.101037025 -7.593422413
C 0.954596639 0.925037146 -6.943428516
C 1.399595737 -0.126962811 -7.978421211
O 0.596595168 -0.584963083 -8.813414574
C -0.111403979 0.320037484 -6.014427662
C 0.297595739 -1.037962675 -5.439423084
C -0.181404576 -2.284961700 -5.803421497
C 1.289595127 -1.267962217 -4.424423695
N 0.457595080 -3.262962818 -5.064423084
C 1.367595196 -2.666961670 -4.221428394
C 2.130593538 -0.419962138 -3.675417900
C 2.237593889 -3.238962650 -3.274416924
C 3.007593393 -0.976963937 -2.750422478
C 3.040593386 -2.387962341 -2.543421745
N 2.661593676 -0.533962488 -7.912418842
C 3.091593027 -1.660964251 -8.734412193
C 3.391593218 -2.875963211 -7.876423836
O 4.397598267 -2.883962631 -7.127426624
C 4.292597771 -1.345963478 -9.627417564
C 4.338598251 -2.370962143 -10.743414879
C 4.164597511 0.044036504 -10.228415489
N 2.489593744 -3.870962620 -7.985421181
C 2.535593271 -5.134963512 -7.237427235
C 3.937597513 -5.723964214 -7.232422352
O 4.556597710 -5.870963573 -6.164421558
N 7.039597511 -4.155963421 -5.356422901
C 6.570597649 -3.788964272 -3.992423058
C 6.664597511 -2.283962250 -3.684420586
O 7.284598351 -1.864962339 -2.686419487
C 7.307598114 -4.616963863 -2.896418571
C 6.845598221 -4.280963421 -1.469416618
O 5.656598091 -4.265964031 -1.170420885
N 7.797597885 -3.990963697 -0.589419305
N 6.056597710 -1.462964058 -4.536423206
C 6.189598083 -0.026962589 -4.339424610
C 5.067598343 0.778037906 -4.925423145
O 4.340598106 0.297036797 -5.820427418
C 7.570597649 0.499036610 -4.803421497
C 7.807595730 0.376037121 -6.306427479
O 6.940597534 -0.012962681 -7.089424610
N 9.005593300 0.740037680 -6.711426258
N 4.903597832 1.978036404 -4.370422840
C 4.030597687 2.992036819 -4.967422962
C 4.974597931 4.014037132 -5.572426319
O 6.048598289 4.281037807 -5.007423878
C 3.201593637 3.741037369 -3.916426659
C 1.995593309 3.049037933 -3.294421196
C 0.786596060 2.811037064 -3.878421783
C 1.887594223 2.571037769 -1.945421457
N -0.057403982 2.186037064 -2.992419243
C 0.595595717 2.037036419 -1.792422771
C 2.772593737 2.522037983 -0.859416187
C 0.154596016 1.470036745 -0.583422661
C 2.329593897 1.965037823 0.337582111
C 1.033596039 1.445037127 0.458576679
N -2.499405622 8.390034676 2.901577950
C -2.480406523 6.917036533 2.876584053
C -3.698406935 6.387035847 3.648579121
O -3.808405638 6.533035755 4.873572826
C -1.157405138 6.312036991 3.403576851
C 0.131595209 6.303036213 2.538578987
C 1.298595905 5.669035435 3.285580635
C -0.025404407 5.633036137 1.182583809
N -4.617401123 5.762035847 2.920582771
C -5.964401245 5.596035480 3.445576191
C -6.468402863 4.149036407 3.374577522
O -5.888402939 3.319038391 2.673581123
C -6.937402725 6.575035572 2.716580391
C -7.231401443 6.201036930 1.256581545
C -8.359404564 5.460035801 0.930577219
C -6.349401474 6.567036152 0.218578979
C -8.635407448 5.109035969 -0.385417044
C -6.582401276 6.197035313 -1.117419481
C -7.734401703 5.474035740 -1.409419060
O -8.009399414 5.109035969 -2.691416740
