195

Cl 2.303985834 1.542626619 0.121193297
B 2.768483877 0.898543656 0.724150240
S 0.772342324 2.075268984 1.290249825
P -2.797853231 -1.203441501 -2.807394981
Cl -0.928099394 -1.582533836 -1.031004190
B -0.078926221 2.486989021 0.158848569
C -0.211858898 -1.139049292 -0.640896380
F -2.500889540 -2.558641911 -1.105751872
C 0.638402820 -0.884178638 -2.553679466
Br -0.375069708 0.015736837 0.492260903
F 2.628967285 1.488827705 1.505106211
C -1.925285578 -2.773349762 -0.441856265
F -2.635600328 -2.471363544 0.069809221
B -1.587825537 -1.971003652 -0.524644732
N 0.552972436 1.233769298 0.764902413
F -0.428360611 -2.940859079 -2.637263775
N 0.841535389 2.526494741 2.639384985
P 2.274392843 2.442985296 -0.543955624
I -1.032294273 0.906435549 0.530560553
Cl 1.720980287 1.906743169 3.989981651
N 6.985437393 -0.491755396 0.720645905
C 6.574438095 -1.142756343 1.961649776
C 7.616437912 -2.169754982 2.471644163
O 7.702437401 -3.263753891 1.919642806
C 5.259437561 -1.861756682 1.579646468
C 4.805438042 -1.225754619 0.326648325
C 6.014437675 -0.686754942 -0.370350182
N 5.112438202 -4.436756134 6.705642700
C 4.292437553 -3.706755638 5.750640869
C 4.379437447 -4.202755928 4.291641235
O 3.710436106 -3.643754959 3.416643381
C 4.598437309 -2.206755161 5.847640991
O 4.063436508 -1.637755513 7.051643372
N 5.169437408 -5.250757217 4.023643494
C 5.376438141 -5.761756897 2.644648314
C 4.086437702 -6.007755280 1.838649392
O 3.102436304 -6.537757874 2.354647398
C 6.248437881 -7.026756287 2.662646055
C 7.013437271 -7.276756287 1.369647861
C 7.923439026 -8.500753403 1.436648965
C 8.686435699 -8.716753006 0.124644786
N 7.892436028 -8.464754105 -1.121349692
N 4.089437485 -5.617755890 0.569644749
C 2.902436495 -5.764757156 -0.274349570
C 1.841436744 -4.692756653 -0.036350571
O 0.749437273 -4.792757034 -0.596355498
N 2.138435602 -3.688755035 0.805645168
C 1.225438714 -2.540754318 1.046649814
C 0.203437969 -2.693754196 2.182642698
O -1.020563483 -2.489755630 1.981646419
N 0.717437923 -3.033754349 3.374643564
C -0.071561761 -3.349754333 4.574645996
C 0.360437661 -2.597755432 5.805641174
O 1.501438260 -2.153756142 5.917640686
C -0.012561781 -4.850755692 4.892646790
C -0.651561677 -5.675756454 3.815644979
C -2.044562101 -5.803756714 3.755647898
C 0.126438141 -6.316757202 2.837649107
C -2.652564764 -6.555755615 2.754648924
C -0.469562262 -7.065757751 1.830646157
C -1.861562610 -7.174755096 1.795649886
O -2.486564398 -7.903753281 0.797649503
N -0.580562294 -2.453754425 6.733642578
C -0.258561969 -2.012755394 8.096651077
C -0.627561510 -3.174755096 9.022653580
O -1.626561999 -3.889755249 8.785654068
C -0.984562278 -0.702755690 8.467653275
C -2.506564856 -0.726755857 8.306650162
S -3.395564795 0.759244323 8.880655289
C -5.057561874 0.097245514 8.670656204
N -3.972563744 -5.211755753 7.304641724
C -5.012561798 -4.445756912 6.573646545
C -4.359561920 -3.690753937 5.395645142
O -3.301563025 -3.019754410 5.556640625
C -5.768562317 -3.471754074 7.527641296
C -6.519561768 -2.404754639 6.764640808
C -6.740562439 -4.251757622 8.423654556
N -4.966562271 -3.828754902 4.210639954
C -4.469562531 -3.148754120 3.012644529
C -4.546562195 -1.625756383 3.096644163
O -5.551561356 -1.051755071 3.586649179
N -3.474563360 -0.989756763 2.651644468
C -3.419563055 0.458245695 2.418642759
C -3.473563910 0.793244481 0.939647377
O -3.083564520 0.001244945 0.111644283
C -2.134562731 1.042244792 2.990648985
C -2.102562428 1.123244405 4.525642395
C -0.770563185 1.693244100 5.013641357
C -3.261564016 1.965245962 5.044639587
N -3.951564312 1.988244414 0.613643646
C -3.945563316 2.500246048 -0.759349823
C -3.354564428 3.915244102 -0.731350005
O -3.571563482 4.667243958 0.261645764
C -5.376562119 2.518245697 -1.348354936
C -5.960561752 1.125245214 -1.507351518
C -5.915561676 0.476245284 -2.733357668
C -6.534563065 0.439244837 -0.422352135
C -6.444562912 -0.802756071 -2.898350954
C -7.064561844 -0.831755400 -0.569355130
C -7.012561798 -1.456755280 -1.816357017
O -7.494562149 -2.749753952 -2.016354799
N -2.603563070 4.265244484 -1.791355491
C -2.151562929 5.644243240 -2.009351015
C -3.109563589 6.505243301 -2.875355959
O -3.582563162 6.065242767 -3.931353807
C -0.778562725 5.641242981 -2.669354677
O -0.403562278 6.974243164 -2.968350649
N -0.146562412 8.003243446 -5.744354248
C 0.877437890 7.202243805 -6.395355225
C 0.267438114 5.982242584 -7.038352966
O -0.832561672 5.599243164 -6.705360413
C 2.004436255 6.831243515 -5.409355164
C 2.806435823 8.028243065 -4.922355652
S 4.157437325 7.594244003 -3.802357912
C 3.257436037 6.630243301 -2.590352297
N 0.973437726 5.401243210 -7.993350029
C 0.511437416 4.203244209 -8.677350998
C 1.264438033 3.024246216 -8.032352448
O 2.470436335 3.106245041 -7.749359131
C 0.796437323 4.316245079 -10.190343857
N 0.537437260 1.952245116 -7.758354187
C 1.086438775 0.776244402 -7.108360291
C 1.531437993 -0.275755465 -8.143352509
O 0.728437483 -0.733755827 -8.978345871
C 0.020438194 0.171244785 -6.179359436
C 0.429437995 -1.186755061 -5.604354858
C -0.049562410 -2.433753967 -5.968353271
C 1.421437383 -1.416754603 -4.589355469
N 0.589437425 -3.411755085 -5.229354858
C 1.499437451 -2.815753937 -4.386360168
C 2.262436152 -0.568754911 -3.840352297
C 2.369436502 -3.387754917 -3.439351320
C 3.139436007 -1.125756383 -2.915356874
C 3.172435999 -2.536754608 -2.708356142
N 2.793436289 -0.682755232 -8.077350616
C 3.223435640 -1.809756637 -8.899343491
C 3.523435831 -3.024755478 -8.041355133
O 4.529438019 -3.032754898 -7.292358398
C 4.424437523 -1.494755864 -9.792348862
C 4.470438004 -2.519754410 -10.908346176
C 4.296437263 -0.104756102 -10.393346786
N 2.621436357 -4.019754410 -8.150352478
C 2.667435884 -5.283756256 -7.402359009
C 4.069437027 -5.872756958 -7.397354126
O 4.688437462 -6.019756317 -6.329353333
N 7.171437263 -4.304756165 -5.521354675
C 6.702437401 -3.937756538 -4.157355309
C 6.796437263 -2.432754517 -3.849354982
O 7.416438103 -2.013754845 -2.851353884
C 7.439437866 -4.765756607 -3.061352968
C 6.977437973 -4.429756165 -1.634350181
O 5.788437843 -4.414756775 -1.335354447
N 7.929438591 -4.139756203 -0.754352570
N 6.188437462 -1.611756444 -4.701354980
C 6.321437836 -0.175755247 -4.504356384
C 5.199438095 0.629245162 -5.090354919
O 4.472437859 0.148244113 -5.985359192
C 7.702437401 0.350243986 -4.968353271
C 7.939437866 0.227244511 -6.471359253
O 7.072437286 -0.161755338 -7.254356384
N 9.137435913 0.591244936 -6.876358032
N 5.035437584 1.829244018 -4.535354614
C 4.162437439 2.843244553 -5.132354736
C 5.106437683 3.865244389 -5.737358093
O 6.180438042 4.132245064 -5.172355652
C 3.333436251 3.592245102 -4.081359863
C 2.127435923 2.900245667 -3.459355593
C 0.918438375 2.662244797 -4.043355942
C 2.019436598 2.422245502 -2.110356331
N 0.074438147 2.037244797 -3.157353640
C 0.727438033 1.888244510 -1.957356334
C 2.904436350 2.373245716 -1.024349570
C 0.286438197 1.321244359 -0.748355925
C 2.461436510 1.816245437 0.172648937
C 1.165438294 1.296244740 0.293643564
N -2.367563009 8.241241455 2.736643553
C -2.348563910 6.768243790 2.711649656
C -3.566564322 6.238243103 3.483644724
O -3.676563025 6.384243011 4.708641052
C -1.025562406 6.163244247 3.238642454
C 0.263437420 6.154243469 2.373644590
C 1.430438161 5.520242691 3.120646238
C 0.106437750 5.484243393 1.017650247
N -4.485561371 5.613243103 2.755648375
C -5.832561493 5.447242737 3.280641794
C -6.336563110 4.000243664 3.209643126
O -5.756563187 3.170246124 2.508646727
C -6.805562973 6.426242828 2.551645994
C -7.099561691 6.052244186 1.091647983
C -8.227561951 5.311243057 0.765643954
C -6.217561722 6.418243408 0.053645678
C -8.503564835 4.960243225 -0.550350130
C -6.450561523 6.048242569 -1.282353044
C -7.602561951 5.325242996 -1.574352622
O -7.877561569 4.960243225 -2.856351137
