195

Br 3.072823524 2.153308630 0.366373032
B 2.582645655 2.044940948 2.655169249
S 1.627422571 2.091725588 1.275827050
B -2.196754456 -1.994430065 -3.660966873
Cl -1.459689379 -2.308325052 -2.357827425
N 0.484110892 2.238981009 0.527050018
S -1.435112596 -1.511801720 -2.005719423
I -2.081638336 -3.440383434 -1.853848815
Br -1.235506773 -0.939846694 -2.156719685
I 0.635802984 0.652197182 -0.338976085
B 2.925427914 2.188217640 1.714525461
B -3.541196823 -3.085642338 -0.097919680
O -2.605992794 -3.072514057 -0.232238427
N -2.683693409 -2.001832724 0.500383854
I 1.489593983 0.396185249 1.406164050
F -1.035503864 -2.916432619 -2.799388170
N 1.460012078 2.909408331 3.344344139
I 2.160631657 2.363154173 -0.584610879
P -0.847673476 1.425998688 -0.432110310
I 2.684290171 2.807091236 4.730489254
N 6.969299316 -0.224360153 1.020951986
C 6.558300018 -0.875361383 2.261956930
C 7.600299835 -1.902360201 2.771951437
O 7.686299324 -2.996358871 2.219949484
C 5.243299484 -1.594361782 1.879952431
C 4.789299965 -0.958359778 0.626954257
C 5.998299599 -0.419359505 -0.070044376
N 5.096300125 -4.169362068 7.005947113
C 4.276299477 -3.439360619 6.050945282
C 4.363299370 -3.935360432 4.591945648
O 3.694294214 -3.376359940 3.716950655
C 4.582299232 -1.939360380 6.147945404
O 4.047298431 -1.370360613 7.351947784
N 5.153299332 -4.983363152 4.323947906
C 5.360300064 -5.494362831 2.944955587
C 4.070299625 -5.740361214 2.138956308
O 3.086294413 -6.270363808 2.654954672
C 6.232299805 -6.759362221 2.962953329
C 6.997299194 -7.009362221 1.669953823
C 7.907300949 -8.233358383 1.736954927
C 8.670293808 -8.449357986 0.424950778
N 7.876297951 -8.197359085 -0.821043611
N 4.073299885 -5.350361824 0.869950771
C 2.886294603 -5.497363091 0.025956377
C 1.825295091 -4.425362587 0.263955384
O 0.733295619 -4.525362968 -0.296049505
N 2.122293472 -3.421360016 1.105951071
C 1.209297061 -2.273359299 1.346955776
C 0.187296465 -2.426359177 2.482949972
O -1.036705613 -2.222360611 2.281954050
N 0.701296270 -2.766359329 3.674950838
C -0.087703303 -3.082359314 4.874950409
C 0.344296098 -2.330360413 6.105945587
O 1.485296607 -1.886361361 6.217945099
C -0.028703343 -4.583361626 5.192951202
C -0.667703331 -5.408362389 4.115950584
C -2.060703516 -5.536362648 4.055953979
C 0.110296607 -6.049363136 3.137956381
C -2.668706656 -6.288361549 3.054956198
C -0.485703826 -6.798363686 2.130953074
C -1.877704024 -6.907361031 2.095957041
O -2.502706289 -7.636359215 1.097955465
N -0.596703947 -2.186359406 7.033946991
C -0.274703473 -1.745360374 8.396955490
C -0.643703163 -2.907360077 9.322957993
O -1.642703652 -3.622360229 9.085958481
C -1.000703931 -0.435360223 8.767957687
C -2.522706747 -0.459360510 8.606954575
S -3.411706686 1.026639462 9.180959702
C -5.073699951 0.364640802 8.970960617
N -3.988705397 -4.944361687 7.604946136
C -5.028699875 -4.178362846 6.873950958
C -4.375699997 -3.423358917 5.695949554
O -3.317704916 -2.752359390 5.856945038
C -5.784700394 -3.204359055 7.827945709
C -6.535699844 -2.137359619 7.064945221
C -6.756700516 -3.984363556 8.723958969
N -4.982700348 -3.561359882 4.510944366
C -4.485700607 -2.881359100 3.312951803
C -4.562700272 -1.358361483 3.396951437
O -5.567699432 -0.784359813 3.886956453
N -3.490705252 -0.722361445 2.951951742
C -3.435704947 0.725641012 2.718950033
C -3.489705801 1.060639620 1.239953041
O -3.099706411 0.268640101 0.411950260
C -2.150704622 1.309639692 3.290956259
C -2.118704557 1.390639305 4.825946808
C -0.786704838 1.960639000 5.313945770
C -3.277705908 2.232640266 5.344944000
N -3.967705488 2.255639553 0.913949668
C -3.961704731 2.767641068 -0.459043741
C -3.370706320 4.182638168 -0.431043953
O -3.587705374 4.934638023 0.561951578
C -5.392700195 2.785640717 -1.048048973
C -5.976699829 1.392640114 -1.207045555
C -5.931699753 0.743640542 -2.433050394
C -6.550701141 0.706640005 -0.122046284
C -6.460700989 -0.535360813 -2.598043680
C -7.080699921 -0.564360142 -0.269049406
C -7.028699875 -1.189360380 -1.516051054
O -7.510700226 -2.482358932 -1.716049194
N -2.619704962 4.532638550 -1.491049528
C -2.167704821 5.911637306 -1.709045172
C -3.125705481 6.772637367 -2.575048685
O -3.598705053 6.332636833 -3.631046534
C -0.794704378 5.908637047 -2.369047403
O -0.419703782 7.241637230 -2.668043375
N -0.162703946 8.270637512 -5.444049835
C 0.861296237 7.469637871 -6.095050812
C 0.251296550 6.249636650 -6.738048553
O -0.848703325 5.866637230 -6.405056000
C 1.988294244 7.098637581 -5.109050751
C 2.790293932 8.295637131 -4.622051239
S 4.141299248 7.861638069 -3.502050638
C 3.241294146 6.897637367 -2.290045023
N 0.957296491 5.668637276 -7.693045616
C 0.495295793 4.470638275 -8.377046585
C 1.248296380 3.291641235 -7.732048035
O 2.454294443 3.373640060 -7.449054718
C 0.780295670 4.583639145 -9.890039444
N 0.521295607 2.219639778 -7.458049774
C 1.070297360 1.043639660 -6.808055878
C 1.515296340 -0.008360246 -7.843049049
O 0.712295830 -0.466360480 -8.678041458
C 0.004296651 0.438640147 -5.879055023
C 0.413296342 -0.919360161 -5.304050446
C -0.065703958 -2.166358948 -5.668048859
C 1.405295730 -1.149359703 -4.289051056
N 0.573295653 -3.144360065 -4.929050446
C 1.483295798 -2.548358917 -4.086055756
C 2.246294260 -0.301359475 -3.540045023
C 2.353294611 -3.120359898 -3.139044046
C 3.123294115 -0.858361423 -2.615049601
C 3.156294107 -2.269359589 -2.408048868
N 2.777294397 -0.415359795 -7.777046204
C 3.207293749 -1.542361736 -8.599039078
C 3.507293940 -2.757360458 -7.741051674
O 4.513299942 -2.765359879 -6.992053986
C 4.408299446 -1.227360964 -9.492044449
C 4.454299927 -2.252359390 -10.608041763
C 4.280299187 0.162639081 -10.093042374
N 2.605294466 -3.752359867 -7.850049019
C 2.651293993 -5.016362190 -7.102054596
C 4.053298950 -5.605362892 -7.097049713
O 4.672299385 -5.752362251 -6.029048920
N 7.155299187 -4.037362099 -5.221050262
C 6.686299324 -3.670361519 -3.857050180
C 6.780299187 -2.165359497 -3.549047709
O 7.400300026 -1.746359825 -2.551046610
C 7.423299789 -4.498362541 -2.761045694
C 6.961299896 -4.162362099 -1.334044218
O 5.772299767 -4.147362709 -1.035048485
N 7.913299561 -3.872361183 -0.454046488
N 6.172299385 -1.344361544 -4.401050568
C 6.305299759 0.091639988 -4.204051971
C 5.183300018 0.896640420 -4.790050507
O 4.456299782 0.415639460 -5.685054779
C 7.686299324 0.617639124 -4.668048859
C 7.923297405 0.494639784 -6.171054840
O 7.056299210 0.105639882 -6.954051971
N 9.121294022 0.858640194 -6.576053619
N 5.019299507 2.096639156 -4.235050201
C 4.146299362 3.110639572 -4.832050323
C 5.090299606 4.132638931 -5.437053680
O 6.164299965 4.399639130 -4.872051239
C 3.317294359 3.859640121 -3.781053782
C 2.111293554 3.167640686 -3.159048319
C 0.902296722 2.929639816 -3.743048906
C 2.003294706 2.689640522 -1.810049057
N 0.058296662 2.304639816 -2.857046366
C 0.711296380 2.155639172 -1.657050371
C 2.888294458 2.640640736 -0.724043429
C 0.270296633 1.588639259 -0.448049814
C 2.445294619 2.083641052 0.472954810
C 1.149296880 1.563639641 0.593949318
N -2.383704901 8.508636475 3.036950827
C -2.364705801 7.035637856 3.011956930
C -3.582706213 6.505637169 3.783951998
O -3.692704916 6.651637077 5.008945465
C -1.041704535 6.430638313 3.538949728
C 0.247295856 6.421637535 2.673951864
C 1.414296508 5.787636757 3.420953512
C 0.090296239 5.751637459 1.317956209
N -4.501699448 5.880637169 3.055955648
C -5.848699570 5.714636803 3.580949068
C -6.352701187 4.267638206 3.509950399
O -5.772701263 3.437641144 2.808954000
C -6.821701050 6.693636894 2.851953268
C -7.115699768 6.319638252 1.391953945
C -8.243703842 5.578637123 1.065949917
C -6.233699799 6.685637474 0.353951633
C -8.519706726 5.227637291 -0.250044346
C -6.466699600 6.315636635 -0.982047200
C -7.618700027 5.592637062 -1.274046659
O -7.893698692 5.227637291 -2.556043863
