195

Cl 2.324038029 1.554024696 -0.033795334
B 2.434867144 0.887514710 0.773925722
I 1.189567447 2.267327070 1.322039604
P -2.529049397 -1.447405934 -2.109039545
Cl -0.659825563 -1.690388441 -0.748872161
B 0.348413706 2.601621866 -0.180110782
C 0.195240617 -1.145127773 -0.708423376
F -2.744771242 -1.901498318 -1.427816629
I 0.231578469 -0.570140600 -2.618033171
B -0.663566828 -0.472558647 0.226975515
F 2.570429325 1.304666758 1.293536663
B -1.701573730 -2.894430161 -0.332529396
F -2.618476629 -2.545527935 -0.063163489
B -1.348130465 -1.724263430 -0.434852302
N 0.913027644 1.004138470 1.060071230
F -0.497293085 -2.516116381 -2.511230946
N 0.692745090 2.346401691 3.028786659
P 1.671475887 1.869622588 -0.639035881
O -1.372657418 1.280701399 0.190848172
Cl 1.563961506 1.791438818 3.910719156
N 7.031088352 -0.482257664 0.785696685
C 6.620089054 -1.133258581 2.026700497
C 7.662088871 -2.160257101 2.536695480
O 7.748088360 -3.254256010 1.984693527
C 5.305088520 -1.852258921 1.644697189
C 4.851089001 -1.216256857 0.391699165
C 6.060088634 -0.677257240 -0.305299342
N 5.158089161 -4.427258492 6.770694733
C 4.338088512 -3.697257757 5.815692902
C 4.425088406 -4.193258286 4.356693268
O 3.756086826 -3.634257078 3.481694698
C 4.644088268 -2.197257280 5.912693024
O 4.109087467 -1.628257751 7.116695404
N 5.215088367 -5.241259575 4.088694572
C 5.422089100 -5.752259254 2.709699631
C 4.132088661 -5.998257637 1.903700113
O 3.148087025 -6.528260231 2.419698715
C 6.294088840 -7.017258644 2.727697372
C 7.059088230 -7.267258644 1.434698582
C 7.969089985 -8.491255760 1.501699686
C 8.732087135 -8.707255363 0.189695626
N 7.938086987 -8.455256462 -1.056298971
N 4.135088444 -5.608258247 0.634695530
C 2.948087215 -5.755259514 -0.209298760
C 1.887087584 -4.683259010 0.028700268
O 0.795087934 -4.783259392 -0.531304717
N 2.184086323 -3.679257154 0.870695949
C 1.271089554 -2.531256437 1.111700535
C 0.249088705 -2.684256315 2.247694016
O -0.974912882 -2.480257750 2.046697140
N 0.763088584 -3.024256468 3.439694881
C -0.025911015 -3.340256453 4.639698029
C 0.406088412 -2.588257551 5.870693207
O 1.547089100 -2.144258261 5.982692719
C 0.033088967 -4.841258049 4.957698822
C -0.605911016 -5.666258812 3.880696297
C -1.998911381 -5.794259071 3.820699215
C 0.172088891 -6.307259560 2.902700424
C -2.606914043 -6.546257973 2.819700241
C -0.423911512 -7.056260109 1.895696878
C -1.815911770 -7.165257454 1.860700607
O -2.440913677 -7.894255638 0.862700284
N -0.534911633 -2.444256544 6.798694611
C -0.212911218 -2.003257513 8.161700249
C -0.581910849 -3.165257215 9.087701797
O -1.580911160 -3.880257368 8.850702286
C -0.938911557 -0.693257987 8.532701492
C -2.460914135 -0.717258155 8.371698380
S -3.349914074 0.768742025 8.945703506
C -5.011910915 0.106743276 8.735704422
N -3.926913023 -5.202258110 7.369693756
C -4.966910839 -4.436259270 6.638698578
C -4.313910961 -3.681256056 5.460697174
O -3.255912304 -3.010256529 5.621692657
C -5.722911358 -3.462256193 7.592693329
C -6.473910809 -2.395256758 6.829692841
C -6.694911480 -4.242259502 8.488702774
N -4.920911312 -3.819257021 4.275691986
C -4.423911572 -3.139256239 3.077695847
C -4.500911236 -1.616258621 3.161695480
O -5.505910397 -1.042257309 3.651700497
N -3.428912640 -0.980258942 2.716695786
C -3.373912334 0.467743456 2.483694077
C -3.427913189 0.802742183 1.004698157
O -3.037913799 0.010742697 0.176695108
C -2.088912010 1.051742554 3.055700302
C -2.056911707 1.132742167 4.590694427
C -0.724912524 1.702741861 5.078693390
C -3.215913296 1.974743366 5.109691620
N -3.905913591 1.997742176 0.678694427
C -3.899912596 2.509743929 -0.694299042
C -3.308913708 3.924741983 -0.666299224
O -3.525912762 4.676741600 0.326696634
C -5.330911160 2.527743578 -1.283304214
C -5.914910793 1.134742975 -1.442300797
C -5.869910717 0.485743046 -2.668306351
C -6.488912106 0.448742598 -0.357301295
C -6.398911953 -0.793258369 -2.833299637
C -7.018910885 -0.822257698 -0.504304349
C -6.966910839 -1.447257519 -1.751306295
O -7.448911190 -2.740256071 -1.951303720
N -2.557912350 4.274742126 -1.726304770
C -2.105912209 5.653740883 -1.944299936
C -3.063912868 6.514740944 -2.810304642
O -3.536912441 6.074740410 -3.866302490
C -0.732912064 5.650740623 -2.604303360
O -0.357911527 6.983740807 -2.903299332
N -0.100911677 8.012741089 -5.679302216
C 0.923088551 7.211741447 -6.330303192
C 0.313088834 5.991740227 -6.973300934
O -0.786911011 5.608740807 -6.640308380
C 2.050086975 6.840741158 -5.344303131
C 2.852086544 8.037741661 -4.857303619
S 4.203088284 7.603741646 -3.737306595
C 3.303086758 6.639740944 -2.525300980
N 1.019088507 5.410740852 -7.928300858
C 0.557088137 4.212741852 -8.612302780
C 1.310088873 3.033744097 -7.967304230
O 2.516087055 3.115742922 -7.684307098
C 0.842087984 4.325742722 -10.125295639
N 0.583087921 1.961742878 -7.693302155
C 1.132089615 0.785742104 -7.043308258
C 1.577088833 -0.266257733 -8.078303337
O 0.774088144 -0.724258125 -8.913297653
C 0.066088945 0.180742577 -6.114307404
C 0.475088745 -1.177257299 -5.539302826
C -0.003911659 -2.424256086 -5.903301239
C 1.467088223 -1.407256842 -4.524303436
N 0.635088086 -3.402257204 -5.164302826
C 1.545088291 -2.806256056 -4.321308136
C 2.308086872 -0.559257209 -3.775300980
C 2.415087223 -3.378257036 -3.374300003
C 3.185086727 -1.116258621 -2.850305557
C 3.218086720 -2.527256727 -2.643304825
N 2.839087009 -0.673257530 -8.012301445
C 3.269086361 -1.800258875 -8.834295273
C 3.569086552 -3.015257597 -7.976306915
O 4.575088978 -3.023257017 -7.227306366
C 4.470088482 -1.485258102 -9.727300644
C 4.516088963 -2.510256529 -10.843297958
C 4.342088223 -0.095258355 -10.328298569
N 2.667087078 -4.010256767 -8.085303307
C 2.713086605 -5.274258614 -7.337306976
C 4.115087986 -5.863259315 -7.332302094
O 4.734088421 -6.010258675 -6.264301300
N 7.217088223 -4.295258522 -5.456302643
C 6.748088360 -3.928258896 -4.092303276
C 6.842088223 -2.423256636 -3.784303665
O 7.462089062 -2.004256725 -2.786302567
C 7.485088825 -4.756258965 -2.996301651
C 7.023088932 -4.420258522 -1.569299459
O 5.834088802 -4.405259132 -1.270303726
N 7.975089550 -4.130258083 -0.689301789
N 6.234088421 -1.602258682 -4.636302948
C 6.367088795 -0.166257471 -4.439304352
C 5.245089054 0.638742864 -5.025302887
O 4.518088818 0.157741889 -5.920307159
C 7.748088360 0.359741747 -4.903301239
C 7.985088825 0.236742318 -6.406307220
O 7.118088245 -0.152257562 -7.189304352
N 9.183087349 0.600742638 -6.811306000
N 5.081088543 1.838741779 -4.470302582
C 4.208088398 2.852742434 -5.067302704
C 5.152088642 3.874742270 -5.672306061
O 6.226089001 4.141742706 -5.107303619
C 3.379086971 3.601742983 -4.016307831
C 2.173086643 2.909743547 -3.394304276
C 0.964089036 2.671742678 -3.978303909
C 2.065087318 2.431743383 -2.045305014
N 0.120088890 2.046742439 -3.092302322
C 0.773088694 1.897742271 -1.892305613
C 2.950087070 2.382743597 -0.959298849
C 0.332088947 1.330742121 -0.683305144
C 2.507087231 1.825743198 0.237699777
C 1.211089134 1.305742502 0.358694404
N -2.321912289 8.250739098 2.801694870
C -2.302913189 6.777741432 2.776700974
C -3.520913601 6.247740746 3.548696041
O -3.630912304 6.393740654 4.773693085
C -0.979911685 6.172741890 3.303693771
C 0.309088171 6.163741112 2.438695908
C 1.476089001 5.529740334 3.185697556
C 0.152088493 5.493741035 1.082700968
N -4.439910412 5.622740746 2.820699692
C -5.786910534 5.456740379 3.345693111
C -6.290912151 4.009741306 3.274694443
O -5.710912228 3.179744005 2.573698044
C -6.759912014 6.435740471 2.616697311
C -7.053910732 6.061741829 1.156698704
C -8.181909561 5.320740700 0.830694735
C -6.171910763 6.427741051 0.118696503
C -8.457913399 4.969740868 -0.485299379
C -6.404910564 6.057740211 -1.217302322
C -7.556910992 5.334740639 -1.509301901
O -7.831910610 4.969740868 -2.791299820
