195

O 1.632741332 1.138493180 -0.204369470
O 0.596703351 0.230188861 -0.815271795
F 0.249605373 0.431269407 -0.135632098
N 0.037678655 -1.550294042 -0.492909580
P -1.176540852 0.194862112 0.467347503
N 0.365679711 0.522680342 0.165108681
C -1.622242212 0.029811185 0.440307766
Cl 1.126705885 -0.764890015 1.124809980
F -1.665871382 0.674088776 -0.831382453
Br 1.377676845 -0.010602100 -0.320993185
Cl 1.304931283 -0.055726785 0.163184062
F 0.717798889 0.430370390 -0.583473921
N -2.028884172 -0.610974550 -0.739086032
Cl -0.738853812 -1.168122053 -0.205924064
F -0.895786822 -1.098195791 -0.658061028
C 0.414125651 -0.970447123 -0.773354948
F 0.231986225 -0.308262199 0.292845190
Cl -1.092932224 1.673447967 -0.396221459
S -0.653206706 -0.353758365 1.627574086
Cl 1.818684697 1.566060543 1.875502825
N 7.107106209 -0.598565578 0.736209273
C 6.696106911 -1.249566555 1.977214217
C 7.738106728 -2.276564598 2.487208366
O 7.824106216 -3.370563984 1.935206771
C 5.381106377 -1.968566298 1.595210314
C 4.927106857 -1.332564950 0.342212021
C 6.136106491 -0.793565273 -0.354786456
N 5.234107018 -4.543566227 6.721208572
C 4.414106369 -3.813564777 5.766206741
C 4.501106262 -4.309566975 4.307207108
O 3.832106352 -3.750565052 3.432207584
C 4.720106125 -2.313564777 5.863206863
O 4.185105801 -1.744565606 7.067209244
N 5.291106224 -5.357567310 4.039209366
C 5.498106956 -5.868566990 2.660212517
C 4.208106518 -6.114565372 1.854213238
O 3.224106550 -6.644567966 2.370211601
C 6.370106697 -7.133566380 2.678210258
C 7.135106087 -7.383566380 1.385211706
C 8.045106888 -8.607565880 1.452212930
C 8.808106422 -8.823565483 0.140208468
N 8.014105797 -8.571566582 -1.105786085
N 4.211105824 -5.724565983 0.585208297
C 3.024106741 -5.871567249 -0.258785874
C 1.963106036 -4.799566746 -0.020786831
O 0.871106386 -4.899567127 -0.580792069
N 2.260106087 -3.795565128 0.821208358
C 1.347107410 -2.647564411 1.062213302
C 0.325106889 -2.800564289 2.198206902
O -0.898894310 -2.596565723 1.997210860
N 0.839106798 -3.140564442 3.390207767
C 0.050107215 -3.456564426 4.590211868
C 0.482106417 -2.704565525 5.821207047
O 1.623106956 -2.260565758 5.933206558
C 0.109107263 -4.957565784 4.908212662
C -0.529892623 -5.782566547 3.831209660
C -1.922892570 -5.910566807 3.771212101
C 0.248107210 -6.423567295 2.853213310
C -2.530894518 -6.662565708 2.770213127
C -0.347893536 -7.172567844 1.846210003
C -1.739893913 -7.281565189 1.811213970
O -2.364894152 -8.010565758 0.813212752
N -0.458893538 -2.560564518 6.749208450
C -0.136892959 -2.119564772 8.112209320
C -0.505892456 -3.281565189 9.038211823
O -1.504893303 -3.996564865 8.801212311
C -0.862893105 -0.809566021 8.483211517
C -2.384894609 -0.833566189 8.322208405
S -3.273894548 0.652433872 8.896213531
C -4.935893059 -0.009564807 8.686214447
N -3.850894213 -5.318565845 7.320207596
C -4.890892982 -4.552567005 6.589212418
C -4.237893105 -3.797564030 5.411211014
O -3.179892778 -3.126564503 5.572206497
C -5.646893501 -3.578564167 7.543207169
C -6.397892952 -2.511564732 6.780206680
C -6.618893623 -4.358566761 8.439212799
N -4.844893456 -3.935564518 4.226205826
C -4.347893715 -3.255564213 3.028208733
C -4.424893379 -1.732566476 3.112208366
O -5.429892540 -1.158565044 3.602213383
N -3.352893114 -1.096566916 2.667208672
C -3.297892809 0.351435393 2.434206963
C -3.351893663 0.686434269 0.955211043
O -2.961894274 -0.105565488 0.127207980
C -2.012892962 0.935434759 3.006213188
C -1.980893373 1.016434193 4.541208267
C -0.648894191 1.586433768 5.029207230
C -3.139893770 1.858435392 5.060205460
N -3.829893827 1.881433964 0.629207015
C -3.823893309 2.393435955 -0.743786454
C -3.232894182 3.808434486 -0.715786576
O -3.449893236 4.560433865 0.277209550
C -5.254893303 2.411435604 -1.332790971
C -5.838892937 1.018435001 -1.491787553
C -5.793892860 0.369435042 -2.717793465
C -6.412894249 0.332434386 -0.406788468
C -6.322894096 -0.909566402 -2.882786751
C -6.942893028 -0.938565731 -0.553791642
C -6.890892982 -1.563565850 -1.800793171
O -7.372893333 -2.856564045 -2.000790596
N -2.481892824 4.158433437 -1.775791645
C -2.029893160 5.537433147 -1.993786812
C -2.987893343 6.398433208 -2.859791756
O -3.460892916 5.958432674 -3.915791035
C -0.656893730 5.534432888 -2.653790474
O -0.281893462 6.867433071 -2.952786446
N -0.024893459 7.896431446 -5.728788376
C 0.999106705 7.095433712 -6.379789352
C 0.389106989 5.875432491 -7.022787094
O -0.710892558 5.492433071 -6.689794540
C 2.126106262 6.724433422 -5.393789291
C 2.928106070 7.921432018 -4.906789780
S 4.279105663 7.487433910 -3.786793709
C 3.379106283 6.523433208 -2.574788094
N 1.095106363 5.294433117 -7.977787971
C 0.633106470 4.096433163 -8.661792755
C 1.386106730 2.917436123 -8.016789436
O 2.592106581 2.999434948 -7.733793259
C 0.918106318 4.209434032 -10.174785614
N 0.659106493 1.845434904 -7.742788315
C 1.208107471 0.669434071 -7.092794418
C 1.653106689 -0.382565767 -8.127789497
O 0.850106478 -0.840566158 -8.962787628
C 0.142107263 0.064434618 -6.163793564
C 0.551106811 -1.293565392 -5.588788986
C 0.072106577 -2.540564060 -5.952787399
C 1.543106079 -1.523564935 -4.573789597
N 0.711106539 -3.518564701 -5.213788986
C 1.621106148 -2.922564030 -4.370794296
C 2.384106398 -0.675565243 -3.824788094
C 2.491106749 -3.494564533 -3.423787117
C 3.261106253 -1.232566357 -2.899792671
C 3.294106245 -2.643564701 -2.692791939
N 2.915106535 -0.789565563 -8.061787605
C 3.345105886 -1.916566491 -8.883785248
C 3.645106077 -3.131565571 -8.025792122
O 4.651106834 -3.139564991 -7.276792526
C 4.546106339 -1.601565957 -9.776790619
C 4.592106819 -2.626564503 -10.892787933
C 4.418106079 -0.211566359 -10.377788544
N 2.743106604 -4.126565456 -8.134792328
C 2.789106131 -5.390566349 -7.386793137
C 4.191106319 -5.979567051 -7.381788254
O 4.810106277 -6.126566410 -6.313787460
N 7.293106079 -4.411566257 -5.505788803
C 6.824106216 -4.044566631 -4.141789436
C 6.918106079 -2.539564610 -3.833790779
O 7.538106918 -2.120564222 -2.835789680
C 7.561106682 -4.872566700 -3.045788765
C 7.099106789 -4.536566257 -1.618786335
O 5.910106659 -4.521566868 -1.319790483
N 8.051106453 -4.246567249 -0.738789201
N 6.310106277 -1.718566537 -4.685789108
C 6.443106651 -0.282565445 -4.488790512
C 5.321106911 0.522434711 -5.074789047
O 4.594106674 0.041433882 -5.969793320
C 7.824106216 0.243433580 -4.952787399
C 8.061106682 0.120434314 -6.455793381
O 7.194106102 -0.268565506 -7.238790512
N 9.259106636 0.484434515 -6.860792160
N 5.157106400 1.722433448 -4.519788742
C 4.284105778 2.736434460 -5.116788864
C 5.228106499 3.758435249 -5.721792221
O 6.302106857 4.025433540 -5.156789780
C 3.455106497 3.485435009 -4.065793037
C 2.249106407 2.793435574 -3.443791389
C 1.040107012 2.555434704 -4.027791023
C 2.141106606 2.315434933 -2.094792366
N 0.196107164 1.930434108 -3.141789436
C 0.849107027 1.781433702 -1.941792250
C 3.026106596 2.266435146 -1.008785844
C 0.408106983 1.214434028 -0.732792497
C 2.583106756 1.709434867 0.188212618
C 1.287106991 1.189434409 0.309207231
N -2.245892763 8.134432793 2.752207756
C -2.226893663 6.661433697 2.727213860
C -3.444894075 6.131433010 3.499208927
O -3.554892778 6.277432919 4.724206924
C -0.903893471 6.056434155 3.254206657
C 0.385106295 6.047433376 2.389208794
C 1.552106857 5.413432598 3.136210442
C 0.228106752 5.377433300 1.033213973
N -4.363892555 5.506433010 2.771212578
C -5.710892677 5.340432644 3.296205997
C -6.214894295 3.893435240 3.225207329
O -5.634894371 3.063436031 2.524210930
C -6.683894157 6.319432735 2.567210197
C -6.977892876 5.945434093 1.107211590
C -8.105893135 5.204432964 0.781207442
C -6.095892906 6.311433315 0.069209449
C -8.381894112 4.853433132 -0.534786820
C -6.328892708 5.941432476 -1.266789079
C -7.480893135 5.218432903 -1.558788776
O -7.755893230 4.853433132 -2.840786934
