195

Br 2.687221289 2.504353762 0.426097423
O 2.830487490 2.254277945 2.715813398
S 1.620445013 1.935423970 1.000980258
B -2.359119177 -2.275785685 -3.760455132
Cl -1.228881121 -2.431294441 -2.648715973
O 0.451115638 2.503890276 0.457369745
S -1.548976660 -1.310969949 -2.025983095
I -1.819769382 -3.520460129 -1.724973321
I -1.151467800 -1.300001025 -2.260686159
I 0.766907752 0.949212372 -0.299972445
B 3.175595045 2.341290712 1.733055711
B -3.547130823 -2.824023962 -0.217076629
O -2.644493818 -3.020839930 0.002940679
N -2.591938734 -2.013400078 0.315781862
I 1.207595110 0.623633623 1.451353669
F -1.205748558 -3.331753254 -2.385823727
N 1.562926054 2.799742699 3.247802258
I 1.999871731 2.064195156 -0.677881420
Cl -0.923000038 1.340538383 -0.385593534
I 2.718361378 2.711971521 5.035966396
N 7.018799305 -0.220967025 1.044446230
C 6.607800007 -0.871968329 2.285451651
C 7.649799824 -1.898966789 2.795446157
O 7.735799313 -2.992965698 2.243444204
C 5.292799473 -1.590968370 1.903446674
C 4.838799953 -0.954966724 0.650448680
C 6.047799587 -0.415966421 -0.046549965
N 5.145800114 -4.165969372 7.029441357
C 4.325799465 -3.435967445 6.074439526
C 4.412799358 -3.931967258 4.615439892
O 3.743794918 -3.372966766 3.740445375
C 4.631799221 -1.935966969 6.171439648
O 4.096798420 -1.366967201 7.375442028
N 5.202799320 -4.979970455 4.347442150
C 5.409800053 -5.490970135 2.968450308
C 4.119800091 -5.736968517 2.162451029
O 3.135795116 -6.266971111 2.678449392
C 6.281799793 -6.755969524 2.986448050
C 7.046799183 -7.005969524 1.693448067
C 7.956800938 -8.229964256 1.760449171
C 8.719793320 -8.445963860 0.448445231
N 7.925797939 -8.193964958 -0.797549188
N 4.122800350 -5.346969128 0.893445194
C 2.935795307 -5.493970394 0.049450789
C 1.874795675 -4.421969891 0.287449807
O 0.782796204 -4.521970272 -0.272555053
N 2.171793938 -3.417966843 1.129445314
C 1.258797646 -2.269966125 1.370450020
C 0.236797065 -2.422966003 2.506444693
O -0.987205148 -2.218967438 2.305448771
N 0.750796854 -2.762966156 3.698445559
C -0.038202710 -3.078966141 4.898444653
C 0.393796682 -2.326967239 6.129439831
O 1.534797192 -1.882967949 6.241439342
C 0.020797255 -4.579968929 5.216445446
C -0.618202746 -5.404969692 4.139444828
C -2.011202812 -5.532969952 4.079448223
C 0.159797207 -6.045970440 3.161451101
C -2.619205952 -6.284968853 3.078450918
C -0.436203241 -6.794970989 2.154447794
C -1.828203440 -6.903968334 2.119451761
O -2.453205585 -7.632966518 1.121449709
N -0.547203362 -2.182966232 7.057441235
C -0.225202829 -1.741966963 8.420450211
C -0.594202578 -2.903966904 9.346452713
O -1.593203068 -3.618967056 9.109453201
C -0.951203406 -0.431967139 8.791452408
C -2.473206043 -0.455967426 8.630449295
S -3.362205982 1.030032873 9.204454422
C -5.024199963 0.368033886 8.994455338
N -3.939204693 -4.940968990 7.628440380
C -4.979199886 -4.174970150 6.897445202
C -4.326200008 -3.419965744 5.719443798
O -3.268204212 -2.748966217 5.880439281
C -5.735200405 -3.200965881 7.851439953
C -6.486199856 -2.133966446 7.088439465
C -6.707200527 -3.980970383 8.747453690
N -4.933200359 -3.557966709 4.534438610
C -4.436200619 -2.877965927 3.336446524
C -4.513200283 -1.354968071 3.420446157
O -5.518199444 -0.780966759 3.910451174
N -3.441204548 -0.718968391 2.975446463
C -3.386204243 0.729034066 2.742444754
C -3.440205097 1.064033031 1.263447285
O -3.050205708 0.272033185 0.435444713
C -2.101203918 1.313033104 3.314450979
C -2.069203854 1.394032717 4.849441051
C -0.737204254 1.964032412 5.337440014
C -3.228205204 2.236033440 5.368438244
N -3.918204784 2.259032726 0.937444091
C -3.912204266 2.771034241 -0.435549289
C -3.321205616 4.186030865 -0.407549500
O -3.538204670 4.938030720 0.585446000
C -5.343200207 2.789033890 -1.024554729
C -5.927199841 1.396033525 -1.183551311
C -5.882199764 0.747033596 -2.409555674
C -6.501201153 0.710033059 -0.098551877
C -6.411201000 -0.531967759 -2.574548960
C -7.031199932 -0.560967088 -0.245554954
C -6.979199886 -1.185966969 -1.492556810
O -7.461200237 -2.478965759 -1.692554951
N -2.570204258 4.536031246 -1.467555285
C -2.118204117 5.915030003 -1.685550928
C -3.076204777 6.776030064 -2.551553965
O -3.549204350 6.336029530 -3.607551813
C -0.745203793 5.912029743 -2.345552683
O -0.370203197 7.245029926 -2.644548655
N -0.113203354 8.274031639 -5.420555592
C 0.910796821 7.473030567 -6.071556568
C 0.300797135 6.253029346 -6.714554310
O -0.799202740 5.870029926 -6.381561756
C 2.037794590 7.102030277 -5.085556507
C 2.839794636 8.299031258 -4.598556995
S 4.190799236 7.865030766 -3.478555918
C 3.290794849 6.901030064 -2.266550303
N 1.006797075 5.672029972 -7.669551373
C 0.544796407 4.474030972 -8.353551865
C 1.297796965 3.295034409 -7.708553791
O 2.503795147 3.377033234 -7.425560474
C 0.829796255 4.587031841 -9.866544724
N 0.570796192 2.223032951 -7.434555531
C 1.119797945 1.047033072 -6.784561634
C 1.564796925 -0.004967132 -7.819554806
O 0.761796415 -0.462967396 -8.654546738
C 0.053797245 0.442033231 -5.855560780
C 0.462796926 -0.915967107 -5.280556202
C -0.016203362 -2.162965775 -5.644554615
C 1.454796314 -1.145966291 -4.265556812
N 0.622796237 -3.140966892 -4.905556202
C 1.532796383 -2.544965744 -4.062561512
C 2.295794964 -0.297966391 -3.516550303
C 2.402795315 -3.116966724 -3.115549326
C 3.172794819 -0.854968369 -2.591554880
C 3.205794811 -2.265966415 -2.384554148
N 2.826795101 -0.411966711 -7.753551960
C 3.256794453 -1.538968325 -8.575544357
C 3.556794643 -2.753967285 -7.717557430
O 4.562799931 -2.761966705 -6.968559742
C 4.457799435 -1.223967552 -9.468549728
C 4.503799915 -2.248966217 -10.584547043
C 4.329799175 0.166032210 -10.069547653
N 2.654795170 -3.748966694 -7.826554775
C 2.700794697 -5.012969494 -7.078560352
C 4.102798939 -5.601970196 -7.073555470
O 4.721799374 -5.748969555 -6.005554676
N 7.204799175 -4.033969402 -5.197556019
C 6.735799313 -3.666968346 -3.833555460
C 6.829799175 -2.161966324 -3.525552988
O 7.449800014 -1.742966413 -2.527551889
C 7.472799778 -4.494969845 -2.737550974
C 7.010799885 -4.158969402 -1.310549974
O 5.821799755 -4.143970013 -1.011554241
N 7.962799549 -3.868968010 -0.430552036
N 6.221799374 -1.340968132 -4.377556324
C 6.354799747 0.095033109 -4.180557728
C 5.232800007 0.900033474 -4.766556263
O 4.505799770 0.419032544 -5.661560535
C 7.735799313 0.621032178 -4.644554615
C 7.972797871 0.498032868 -6.147560596
O 7.105799198 0.109033003 -6.930557728
N 9.170793533 0.862033248 -6.552559376
N 5.068799496 2.100032330 -4.211555958
C 4.195799351 3.114032745 -4.808556080
C 5.139799595 4.136031628 -5.413559437
O 6.213799953 4.403031826 -4.848556995
C 3.366795063 3.863033295 -3.757559061
C 2.160794258 3.171033859 -3.135553598
C 0.951797307 2.933032990 -3.719554186
C 2.052795410 2.693033695 -1.786554813
N 0.107797265 2.308032990 -2.833551645
C 0.760796964 2.159032345 -1.633556128
C 2.937795162 2.644033909 -0.700549006
C 0.319797218 1.592032671 -0.424555361
C 2.494795322 2.087034225 0.496449232
C 1.198797464 1.567033052 0.617443740
N -2.334204197 8.512030602 3.060445547
C -2.315205097 7.039030552 3.035451651
C -3.533205509 6.509029865 3.807446718
O -3.643204212 6.655029774 5.032439709
C -0.992203951 6.434031010 3.562444448
C 0.296796441 6.425030231 2.697446585
C 1.463797092 5.791029453 3.444448233
C 0.139796853 5.755030155 1.341450453
N -4.452199459 5.884029865 3.079450369
C -5.799199581 5.718029499 3.604443789
C -6.303201199 4.271030903 3.533445120
O -5.723201275 3.441034317 2.832448721
C -6.772201061 6.697029591 2.875447989
C -7.066199780 6.323030949 1.415448189
C -8.194204330 5.582029819 1.089444160
C -6.184199810 6.689030170 0.377446085
C -8.470207214 5.231029987 -0.226549923
C -6.417199612 6.319029331 -0.958552778
C -7.569200039 5.596029758 -1.250552416
O -7.844198704 5.231029987 -2.532549143
