195

C 2.776522398 2.209339142 0.588644207
C 2.872418642 2.421312571 3.388733864
C 2.047813892 1.783521891 0.498534083
O -2.471964836 -2.839935541 -3.818411827
C -1.607749462 -1.993665576 -2.882336617
S 0.224620059 2.158514023 0.504498482
C -1.103351116 -1.394932985 -1.929655075
C -2.001609802 -3.382650375 -1.335558653
C -1.308891296 -1.100439310 -2.624597073
C 0.719403028 1.608368397 -0.117065243
C 2.844827890 2.274448633 2.154480934
O -4.036006927 -3.086206198 0.218102962
C -2.983580112 -2.855126143 -0.556070805
C -2.715506792 -2.626116991 0.068079524
C 1.594656706 0.827157855 1.837503314
I -1.896511555 -3.643118620 -2.780277252
N 1.750507236 2.520803928 3.376036167
C 2.945546150 2.697325468 -0.623408735
N -0.505559742 1.272216678 -0.724318624
C 2.854416847 3.149181843 4.757086277
N 7.004066944 -0.220335335 0.997378767
C 6.593067646 -0.871336997 2.238383770
C 7.635067463 -1.898335338 2.748378277
O 7.721066952 -2.992334366 2.196376324
C 5.278067112 -1.590336919 1.856378913
C 4.824067593 -0.954335213 0.603381276
C 6.033067226 -0.415334731 -0.093617558
N 5.131067753 -4.165333271 6.982372761
C 4.311067104 -3.435336113 6.027370930
C 4.398066998 -3.931335926 4.568371296
O 3.729063749 -3.372335434 3.693377495
C 4.617066860 -1.935335517 6.124371052
O 4.082066059 -1.366335750 7.328373432
N 5.188066959 -4.979334354 4.300373554
C 5.395067692 -5.490334034 2.921382427
C 4.105067730 -5.736332417 2.115383148
O 3.121063948 -6.266335011 2.631381512
C 6.267067432 -6.755333424 2.939380169
C 7.032066822 -7.005333424 1.646380305
C 7.942068577 -8.229331970 1.713381410
C 8.705064774 -8.445331573 0.401377767
N 7.911065578 -8.193332672 -0.844616592
N 4.108067989 -5.346333027 0.846377790
C 2.921064138 -5.493334293 0.002383240
C 1.860065222 -4.421333790 0.240382180
O 0.768065274 -4.521334171 -0.319622576
N 2.157062769 -3.417335510 1.082377553
C 1.244067192 -2.269334793 1.323382258
C 0.222066209 -2.422334671 2.459376812
O -1.001935959 -2.218336105 2.258380890
N 0.736065924 -2.762334824 3.651377678
C -0.052933611 -3.078334808 4.851376057
C 0.379065871 -2.326335907 6.082371235
O 1.520066738 -1.882336497 6.194370747
C 0.006066361 -4.579332829 5.169376850
C -0.632933676 -5.404333591 4.092376232
C -2.025933981 -5.532333851 4.032379627
C 0.145066306 -6.045334339 3.114383221
C -2.633937120 -6.284332752 3.031383038
C -0.450934052 -6.794334888 2.107379913
C -1.842933893 -6.903332233 2.072383881
O -2.467936754 -7.632330418 1.074381948
N -0.561934352 -2.182334900 7.010372639
C -0.239933744 -1.741335511 8.373382568
C -0.608933508 -2.903335571 9.299385071
O -1.607933521 -3.618335724 9.062385559
C -0.965934336 -0.431335479 8.744384766
C -2.487937212 -0.455335766 8.583381653
S -3.376937151 1.030664325 9.157386780
C -5.038932323 0.368665576 8.947387695
N -3.953935862 -4.940332890 7.581371784
C -4.993932247 -4.174334049 6.850376606
C -4.340932369 -3.419334412 5.672375202
O -3.282935381 -2.748334885 5.833370686
C -5.749932766 -3.200334549 7.804371357
C -6.500932217 -2.133335114 7.041370869
C -6.721932888 -3.980339527 8.700386047
N -4.947932720 -3.557335377 4.487370014
C -4.450932980 -2.877334595 3.289378643
C -4.527932644 -1.354336619 3.373378277
O -5.532931805 -0.780335426 3.863383293
N -3.455935717 -0.718337059 2.928378582
C -3.400935411 0.729665399 2.695376873
C -3.454936266 1.064664483 1.216379523
O -3.064936876 0.272664905 0.388377190
C -2.115935087 1.313664556 3.267383099
C -2.083935022 1.394664168 4.802372456
C -0.751935184 1.964664102 5.290371418
C -3.242936373 2.236664772 5.321369648
N -3.932935953 2.259664059 0.890376687
C -3.926935434 2.771665573 -0.482616991
C -3.335936785 4.186666965 -0.454617053
O -3.552935839 4.938666821 0.538378656
C -5.357932568 2.789665222 -1.071622491
C -5.941932201 1.396664977 -1.230619073
C -5.896932125 0.747664928 -2.456623554
C -6.515933514 0.710664392 -0.145619422
C -6.425933361 -0.531336308 -2.621616840
C -7.045932293 -0.560335636 -0.292622417
C -6.993932247 -1.185335517 -1.539624572
O -7.475932598 -2.478334427 -1.739622712
N -2.584935427 4.536667347 -1.514623046
C -2.132935286 5.915666103 -1.732618690
C -3.090935946 6.776666164 -2.598621845
O -3.563935518 6.336665630 -3.654619694
C -0.759934723 5.912665844 -2.392620564
O -0.384934008 7.245666027 -2.691616535
N -0.127934307 8.274663925 -5.467624187
C 0.896065891 7.473666668 -6.118625164
C 0.286066324 6.253665447 -6.761622906
O -0.813933671 5.870666027 -6.428630352
C 2.023063421 7.102666378 -5.132625103
C 2.825063467 8.299663544 -4.645625591
S 4.176066875 7.865666866 -3.525623798
C 3.276063681 6.901666164 -2.313618183
N 0.992066443 5.672666073 -7.716619968
C 0.530065477 4.474667072 -8.400619507
C 1.283066511 3.295665741 -7.755622387
O 2.489063978 3.377664566 -7.472629070
C 0.815065324 4.587667942 -9.913612366
N 0.556065261 2.223664284 -7.481624126
C 1.105067492 1.047664285 -6.831630230
C 1.550066471 -0.004335468 -7.866623402
O 0.747065485 -0.462335736 -8.701614380
C 0.039066337 0.442664862 -5.902629375
C 0.448066235 -0.915335774 -5.327624798
C -0.030934241 -2.162334442 -5.691623211
C 1.440065861 -1.145334840 -4.312625408
N 0.608065307 -3.140335560 -4.952624798
C 1.518065929 -2.544334412 -4.109630108
C 2.281063795 -0.297334671 -3.563618183
C 2.388064146 -3.116335392 -3.162617207
C 3.158063650 -0.854337037 -2.638622761
C 3.191063643 -2.265335083 -2.431622028
N 2.812063932 -0.411335021 -7.800620556
C 3.242063284 -1.538336873 -8.622612000
C 3.542063475 -2.753335953 -7.764626026
O 4.548067570 -2.761335373 -7.015628338
C 4.443067074 -1.223336101 -9.515617371
C 4.489067554 -2.248334885 -10.631614685
C 4.315066814 0.166663945 -10.116615295
N 2.640064001 -3.748335361 -7.873623371
C 2.686063528 -5.012333393 -7.125628948
C 4.088066578 -5.601334095 -7.120624065
O 4.707067013 -5.748333454 -6.052623272
N 7.190066814 -4.033336163 -5.244624615
C 6.721066952 -3.666337013 -3.880623341
C 6.815066814 -2.161334991 -3.572620869
O 7.435067654 -1.742334962 -2.574619770
C 7.458067417 -4.494333744 -2.784618855
C 6.996067524 -4.158333302 -1.357617736
O 5.807067394 -4.143333912 -1.058622003
N 7.948067188 -3.868336678 -0.477619678
N 6.207067013 -1.340336680 -4.424624920
C 6.340067387 0.095664777 -4.227626324
C 5.218067646 0.900664747 -4.813624859
O 4.491067410 0.419664264 -5.708629131
C 7.721066952 0.621663511 -4.691623211
C 7.958065510 0.498664260 -6.194629192
O 7.091066837 0.109664671 -6.977626324
N 9.156064987 0.862664580 -6.599627972
N 5.054067135 2.100663662 -4.258624554
C 4.181066990 3.114664078 -4.855624676
C 5.125067234 4.136667728 -5.460628033
O 6.199067593 4.403667927 -4.895625591
C 3.352063894 3.863664627 -3.804626942
C 2.146063089 3.171665192 -3.182621479
C 0.937066436 2.933664322 -3.766622066
C 2.038064241 2.693665028 -1.833622575
N 0.093066394 2.308664322 -2.880619526
C 0.746066034 2.159663677 -1.680623889
C 2.923063993 2.644665241 -0.747616410
C 0.305066407 1.592664123 -0.471622914
C 2.480064154 2.087665558 0.449381918
C 1.184067011 1.567664504 0.570376337
N -2.348935366 8.512662888 3.013377666
C -2.329936266 7.039666653 2.988383770
C -3.547936678 6.509665966 3.760378838
O -3.657935381 6.655665874 4.985371113
C -1.006934643 6.434667110 3.515376568
C 0.282065630 6.425666332 2.650378704
C 1.449066639 5.791665554 3.397380352
C 0.125065997 5.755666256 1.294382691
N -4.466931820 5.884665966 3.032382488
C -5.813931942 5.718665600 3.557375908
C -6.317933559 4.271667004 3.486377239
O -5.737933636 3.441665649 2.785380840
C -6.786933422 6.697665691 2.828380108
C -7.080932140 6.323667049 1.368380427
C -8.208932877 5.582665920 1.042376518
C -6.198932171 6.689666271 0.330378562
C -8.484935760 5.231666088 -0.273617387
C -6.431931973 6.319665432 -1.005620599
C -7.583932400 5.596665859 -1.297620177
O -7.858931065 5.231666088 -2.579617023
