195

Cl 2.184649706 1.802071214 0.033094987
B 2.660901546 0.663720846 1.052412748
I 0.770647228 2.264740944 1.304457664
P -2.431761503 -1.220947504 -2.378036022
Cl -0.987206459 -1.582313061 -0.742878258
B 0.195988983 2.543287754 -0.039888144
C -0.016166013 -1.185811520 -0.725229144
F -2.797082186 -2.172340631 -1.539477825
I 0.370683134 -0.521754026 -2.742367029
F -0.796369255 -0.453022867 0.409562707
F 2.868357658 1.210087538 1.686533689
B -1.810169935 -2.831442595 -0.170251414
F -2.226867914 -2.577202082 -0.388772666
B -1.591768146 -1.581437945 -0.605465591
N 0.691638529 1.219047785 0.954178154
F -0.720190108 -2.813818216 -2.583059549
N 0.973156512 2.128836632 2.893745661
P 1.848016977 1.921551347 -0.550295293
I -1.233962536 1.181323767 0.231631398
Cl 2.047503948 2.005422354 3.900103569
N 6.965077400 -0.449929297 0.694631040
C 6.554078102 -1.100930214 1.935634851
C 7.596077919 -2.127928734 2.445629597
O 7.682077408 -3.221927643 1.893627882
C 5.239077568 -1.819930553 1.553631544
C 4.785078049 -1.183928490 0.300633490
C 5.994077682 -0.644928873 -0.396365017
N 5.092078209 -4.394930363 6.679628849
C 4.272077560 -3.664929390 5.724627018
C 4.359077454 -4.160930157 4.265627384
O 3.690075636 -3.601928711 3.390628815
C 4.578077316 -2.164928913 5.821627140
O 4.043076515 -1.595929384 7.025629520
N 5.149077415 -5.208931446 3.997628689
C 5.356078148 -5.719931126 2.618633747
C 4.066077709 -5.965929508 1.812634468
O 3.082075834 -6.495932102 2.328632832
C 6.228077888 -6.984930515 2.636631489
C 6.993077278 -7.234930515 1.343632936
C 7.903079033 -8.458927155 1.410634041
C 8.666075706 -8.674926758 0.098629981
N 7.872076035 -8.422927856 -1.147364616
N 4.069077492 -5.575930119 0.543629885
C 2.882076025 -5.722931385 -0.300364405
C 1.821076393 -4.650930882 -0.062365379
O 0.729076743 -4.750931263 -0.622370362
N 2.118075132 -3.646928787 0.779630303
C 1.205078363 -2.498928070 1.020634890
C 0.183077544 -2.651927948 2.156628132
O -1.040924072 -2.447929382 1.955631495
N 0.697077394 -2.991928101 3.348628998
C -0.091922186 -3.307928085 4.548632145
C 0.340077251 -2.555929184 5.779627323
O 1.481077909 -2.111929893 5.891626835
C -0.032922208 -4.808929920 4.866632938
C -0.671922207 -5.633930683 3.789630413
C -2.064922571 -5.761930943 3.729633331
C 0.106077723 -6.274931431 2.811634541
C -2.672925234 -6.513929844 2.728634357
C -0.489922673 -7.023931980 1.804631233
C -1.881922960 -7.132929325 1.769634962
O -2.506924868 -7.861927509 0.771634638
N -0.600922823 -2.411928177 6.707628727
C -0.278922379 -1.970929146 8.070634842
C -0.647922039 -3.132928848 8.996637344
O -1.646922350 -3.847929001 8.759637833
C -1.004922748 -0.660929620 8.441637039
C -2.526925325 -0.684929788 8.280633926
S -3.415925264 0.801070392 8.854639053
C -5.077921867 0.139071643 8.644639969
N -3.992924213 -5.169929981 7.278627872
C -5.032921791 -4.403931141 6.547632694
C -4.379921913 -3.648927689 5.369631290
O -3.321923494 -2.977928162 5.530626774
C -5.788922310 -3.429927826 7.501627445
C -6.539921761 -2.362928391 6.738626957
C -6.760922432 -4.209931374 8.397638321
N -4.986922264 -3.786928654 4.184626102
C -4.489922523 -3.106927872 2.986629963
C -4.566922188 -1.583930254 3.070629597
O -5.571921349 -1.009928942 3.560634613
N -3.494923830 -0.947930634 2.625629902
C -3.439923525 0.500071824 2.392628193
C -3.493924379 0.835070550 0.913632512
O -3.103924990 0.043071076 0.085629463
C -2.154923201 1.084070921 2.964634418
C -2.122922897 1.165070534 4.499628544
C -0.790923715 1.735070229 4.987627506
C -3.281924486 2.007071972 5.018625736
N -3.971924782 2.030070543 0.587628782
C -3.965923786 2.542072296 -0.785364687
C -3.374924898 3.957070351 -0.757364869
O -3.591923952 4.709069729 0.235630959
C -5.396922112 2.560071945 -1.374369860
C -5.980921745 1.167071342 -1.533366442
C -5.935921669 0.518071413 -2.759372234
C -6.554923058 0.481070966 -0.448366970
C -6.464922905 -0.760930002 -2.924365520
C -7.084921837 -0.789929330 -0.595369995
C -7.032921791 -1.414929152 -1.842371941
O -7.514922142 -2.707927704 -2.042369366
N -2.623923540 4.307070255 -1.817370415
C -2.171923399 5.686069012 -2.035365582
C -3.129924059 6.547069073 -2.901370525
O -3.602923632 6.107068539 -3.957368374
C -0.798923254 5.683068752 -2.695369244
O -0.423922688 7.016068935 -2.994365215
N -0.166922837 8.045069695 -5.770368099
C 0.857077360 7.244069576 -6.421369076
C 0.247077674 6.024068356 -7.064366817
O -0.852922201 5.641068935 -6.731374264
C 1.984075785 6.873069286 -5.435369015
C 2.786075354 8.070070267 -4.948369503
S 4.137077332 7.636069775 -3.828372478
C 3.237075567 6.672069073 -2.616366863
N 0.953077316 5.443068981 -8.019366264
C 0.491076976 4.245069981 -8.703367233
C 1.244077682 3.066072464 -8.058368683
O 2.450075865 3.148071289 -7.775372982
C 0.776076794 4.358070850 -10.216360092
N 0.517076731 1.994071245 -7.784368038
C 1.066078424 0.818070471 -7.134374142
C 1.511077642 -0.233929366 -8.169368744
O 0.708076954 -0.691929758 -9.004362106
C 0.000077769 0.213070944 -6.205373287
C 0.409077585 -1.144928932 -5.630368710
C -0.069922835 -2.391927719 -5.994367123
C 1.401077032 -1.374928474 -4.615369320
N 0.569076896 -3.369928837 -5.255368710
C 1.479077101 -2.773927689 -4.412374020
C 2.242075682 -0.526928842 -3.866366863
C 2.349076033 -3.345928669 -3.465365887
C 3.119075537 -1.083930254 -2.941371441
C 3.152075529 -2.494928360 -2.734370708
N 2.773075819 -0.640929163 -8.103366852
C 3.203075171 -1.767930508 -8.925359726
C 3.503075361 -2.982929230 -8.067371368
O 4.509078026 -2.990928650 -7.318372250
C 4.404077530 -1.452929735 -9.818365097
C 4.450078011 -2.477928162 -10.934362411
C 4.276077271 -0.062929973 -10.419363022
N 2.601075888 -3.977928400 -8.176368713
C 2.647075415 -5.241930485 -7.428372860
C 4.049077034 -5.830931187 -7.423367977
O 4.668077469 -5.977930546 -6.355367184
N 7.151077271 -4.262930393 -5.547368526
C 6.682077408 -3.895930529 -4.183369160
C 6.776077271 -2.390928268 -3.875369549
O 7.396078110 -1.971928358 -2.877368450
C 7.419077873 -4.723930836 -3.087367535
C 6.957077980 -4.387930393 -1.660365105
O 5.768077850 -4.372931004 -1.361369371
N 7.909078598 -4.097929955 -0.780367434
N 6.168077469 -1.569930315 -4.727368832
C 6.301077843 -0.133929104 -4.530370235
C 5.179078102 0.671071231 -5.116368771
O 4.452077866 0.190070257 -6.011373043
C 7.682077408 0.392070115 -4.994367123
C 7.919077873 0.269070685 -6.497373104
O 7.052077293 -0.119929187 -7.280370235
N 9.117075920 0.633071005 -6.902371883
N 5.015077591 1.871070147 -4.561368465
C 4.142077446 2.885070801 -5.158368587
C 5.086077690 3.907070637 -5.763371944
O 6.160078049 4.174070835 -5.198369503
C 3.313075781 3.634071350 -4.107373714
C 2.107075453 2.942071915 -3.485370159
C 0.898077846 2.704071045 -4.069369793
C 1.999076128 2.464071751 -2.136370897
N 0.054077715 2.079070807 -3.183368206
C 0.707077503 1.930070639 -1.983371258
C 2.884075880 2.415071964 -1.050364494
C 0.266077787 1.363070488 -0.774370790
C 2.441076040 1.858071566 0.146634132
C 1.145077944 1.338070869 0.267628729
N -2.387923479 8.283067703 2.710628986
C -2.368924379 6.810069561 2.685635090
C -3.586924791 6.280068874 3.457630157
O -3.696923494 6.426068783 4.682627201
C -1.045922875 6.205070019 3.212627888
C 0.243077010 6.196069241 2.347630024
C 1.410077810 5.562068462 3.094631672
C 0.086077325 5.526069164 0.991635382
N -4.505921364 5.655068874 2.729633808
C -5.852921486 5.489068508 3.254627228
C -6.356923103 4.042069435 3.183628559
O -5.776923180 3.212072372 2.482632160
C -6.825922966 6.468068600 2.525631428
C -7.119921684 6.094069958 1.065633059
C -8.247921944 5.353068829 0.739629090
C -6.237921715 6.460069180 0.027630854
C -8.523924828 5.002068996 -0.576364994
C -6.470921516 6.090068340 -1.308367968
C -7.622921944 5.367068768 -1.600367546
O -7.897921562 5.002068996 -2.882365704
