195

Cl 2.788233757 1.882945180 -0.034386773
B 2.585400581 1.579984426 1.257144332
F 1.313524485 2.214519978 0.950345695
P -2.138941765 -1.182760119 -2.739250898
N -1.459513545 -2.107542515 -1.096851230
B 0.349170148 2.751447439 -0.230004773
S -1.424137354 -1.364094019 -0.703363478
F -2.178386450 -2.609681129 -1.284923196
S 0.121356986 -0.562798977 -2.495977640
I 0.399731666 0.100498244 -0.269373268
F 2.652139664 1.320180416 1.694066167
F -2.454006672 -2.802526712 0.124660134
F -2.877339840 -2.797150373 -0.108327478
S -2.383423328 -1.689529181 0.176717028
N 0.678152084 0.697467089 1.144945145
F -0.436676800 -2.556631327 -2.664188147
N 0.591406763 2.693805933 3.088350058
I 2.949465275 1.468145967 -0.353629351
P -1.440830827 1.297772050 -0.206948489
I 2.364674568 1.665946722 3.750995874
N 7.028964043 -0.457469702 0.790616214
C 6.617964745 -1.108470678 2.031620264
C 7.659964561 -2.135469437 2.541614771
O 7.745964050 -3.229468346 1.989613295
C 5.302964211 -1.827471018 1.649617195
C 4.848964691 -1.191468954 0.396618605
C 6.057964325 -0.652469277 -0.300379902
N 5.155964851 -4.402470589 6.775612354
C 4.335964203 -3.672470093 5.820610523
C 4.422964096 -4.168470383 4.361610889
O 3.753961086 -3.609469414 3.486613989
C 4.641963959 -2.172469616 5.917610645
O 4.106963158 -1.603469849 7.121613026
N 5.212964058 -5.216471672 4.093613148
C 5.419964790 -5.727471352 2.714618921
C 4.129963875 -5.973469734 1.908620119
O 3.145961285 -6.503472328 2.424618006
C 6.291964531 -6.992470741 2.732616663
C 7.056963921 -7.242470741 1.439618587
C 7.966965675 -8.466467857 1.506619692
C 8.729961395 -8.682467461 0.194615200
N 7.935962677 -8.430468559 -1.051378965
N 4.132964134 -5.583470345 0.639615059
C 2.945961475 -5.730471611 -0.204379186
C 1.884961605 -4.658471107 0.033619814
O 0.792962372 -4.758471489 -0.526385188
N 2.181960583 -3.654469490 0.875615478
C 1.268963575 -2.506468773 1.116620541
C 0.246963158 -2.659468651 2.252613306
O -0.977038622 -2.455470085 2.051617384
N 0.760963023 -2.999468803 3.444614172
C -0.028036634 -3.315468788 4.644615650
C 0.403962761 -2.563469887 5.875610828
O 1.544963121 -2.119470596 5.987610340
C 0.030963344 -4.816470146 4.962616444
C -0.608036578 -5.641470909 3.885615587
C -2.001037121 -5.769471169 3.825618505
C 0.169963285 -6.282471657 2.907619715
C -2.609039783 -6.521470070 2.824619532
C -0.426037163 -7.031472206 1.900616884
C -1.818037748 -7.140469551 1.865620613
O -2.443039417 -7.869467735 0.867619812
N -0.537037194 -2.419468880 6.803612232
C -0.215036809 -1.978469729 8.166621208
C -0.584036410 -3.140469551 9.092623711
O -1.583037138 -3.855469704 8.855624199
C -0.941037118 -0.668470025 8.537623405
C -2.463039875 -0.692470193 8.376620293
S -3.352039814 0.793529987 8.950625420
C -5.014035225 0.131531209 8.740626335
N -3.929038763 -5.177470207 7.374611378
C -4.969035149 -4.411471367 6.643616199
C -4.316035271 -3.656468391 5.465614796
O -3.258038044 -2.985468864 5.626610279
C -5.725035667 -3.437468529 7.597610950
C -6.476035118 -2.370469093 6.834610462
C -6.697035789 -4.217472076 8.493624687
N -4.923035622 -3.794469357 4.280609608
C -4.426035881 -3.114468575 3.082615137
C -4.503035545 -1.591470718 3.166614771
O -5.508034706 -1.017469406 3.656619787
N -3.431038380 -0.955471098 2.721615076
C -3.376038074 0.492531389 2.488613367
C -3.430038929 0.827530146 1.009617805
O -3.040039539 0.035530630 0.181614682
C -2.091037750 1.076530457 3.060619593
C -2.059037447 1.157530069 4.595612049
C -0.727038085 1.727529764 5.083611012
C -3.218039036 1.999531150 5.114609241
N -3.908039331 2.022530079 0.683613956
C -3.902038336 2.534531593 -0.689379513
C -3.311039448 3.949529648 -0.661379695
O -3.528038502 4.701529503 0.331616044
C -5.333035469 2.552531242 -1.278384209
C -5.917035103 1.159530878 -1.437380791
C -5.872035027 0.510530949 -2.663387060
C -6.491036415 0.473530561 -0.352381855
C -6.401036263 -0.768470407 -2.828380346
C -7.021035194 -0.797469735 -0.499384940
C -6.969035149 -1.422469616 -1.746386290
O -7.451035500 -2.715468407 -1.946384430
N -2.560038090 4.299530029 -1.721384764
C -2.108037949 5.678528786 -1.939380407
C -3.066038609 6.539528847 -2.805385351
O -3.539038181 6.099528313 -3.861383200
C -0.735037625 5.675528526 -2.599384069
O -0.360037178 7.008528709 -2.898380041
N -0.103037260 8.037528992 -5.674384594
C 0.920962989 7.236529350 -6.325385571
C 0.310963184 6.016528130 -6.968383312
O -0.789036572 5.633528709 -6.635390759
C 2.047961235 6.865529060 -5.339385509
C 2.849960804 8.062528610 -4.852385998
S 4.200963974 7.628529549 -3.732387304
C 3.300961018 6.664528847 -2.520381689
N 1.016962767 5.435528755 -7.923380375
C 0.554962516 4.237529755 -8.607380867
C 1.307962894 3.058531761 -7.962382317
O 2.513961315 3.140530586 -7.679389477
C 0.839962423 4.350530624 -10.120373726
N 0.580962360 1.986530542 -7.688384533
C 1.129963636 0.810530066 -7.038390636
C 1.574962854 -0.241469756 -8.073382378
O 0.771962583 -0.699470162 -8.908375740
C 0.063963309 0.205530509 -6.109389782
C 0.472963095 -1.152469397 -5.534385204
C -0.006037286 -2.399468422 -5.898383617
C 1.464962244 -1.382468939 -4.519385815
N 0.632962525 -3.377469540 -5.159385204
C 1.542962313 -2.781468391 -4.316390514
C 2.305961132 -0.534469247 -3.770381689
C 2.412961483 -3.353469372 -3.369380713
C 3.182960987 -1.091470718 -2.845386267
C 3.215960979 -2.502469063 -2.638385534
N 2.836961269 -0.648469567 -8.007380486
C 3.266960621 -1.775470972 -8.829373360
C 3.566960812 -2.990469933 -7.971385956
O 4.572964668 -2.998469353 -7.222388744
C 4.467964172 -1.460470200 -9.722378731
C 4.513964653 -2.485468864 -10.838376045
C 4.339963913 -0.070470430 -10.323376656
N 2.664961338 -3.985469103 -8.080382347
C 2.710960865 -5.249470711 -7.332389355
C 4.112963676 -5.838471413 -7.327384472
O 4.731964111 -5.985470772 -6.259383678
N 7.214963913 -4.270470619 -5.451385021
C 6.745964050 -3.903470993 -4.087385654
C 6.839963913 -2.398468971 -3.779384375
O 7.459964752 -1.979469180 -2.781383276
C 7.482964516 -4.731471062 -2.991382360
C 7.020964622 -4.395470619 -1.564379454
O 5.831964493 -4.380471230 -1.265383720
N 7.972965240 -4.105470657 -0.684382260
N 6.231964111 -1.577470779 -4.631385326
C 6.364964485 -0.141469523 -4.434386730
C 5.242964745 0.663530827 -5.020385265
O 4.515964508 0.182529822 -5.915389538
C 7.745964050 0.384529680 -4.898383617
C 7.982964516 0.261530191 -6.401389599
O 7.115963936 -0.127469629 -7.184386730
N 9.180961609 0.625530601 -6.806388378
N 5.078964233 1.863529682 -4.465384960
C 4.205964088 2.877530098 -5.062385082
C 5.149964333 3.899529934 -5.667388439
O 6.223964691 4.166530609 -5.102385998
C 3.376961231 3.626530647 -4.011390209
C 2.170960903 2.934531212 -3.389384985
C 0.961963475 2.696530342 -3.973385572
C 2.062961578 2.456531048 -2.040385485
N 0.117963307 2.071530342 -3.087383032
C 0.770963132 1.922530174 -1.887385607
C 2.947961330 2.407531261 -0.954379141
C 0.329963297 1.355530024 -0.678385615
C 2.504961491 1.850531101 0.242619261
C 1.208963156 1.330530405 0.363613844
N -2.324038029 8.275527000 2.806614161
C -2.305038929 6.802529335 2.781620264
C -3.523039341 6.272528648 3.553615332
O -3.633038044 6.418528557 4.778610706
C -0.982037544 6.197529793 3.308613062
C 0.306962490 6.188529015 2.443615198
C 1.473963022 5.554528236 3.190616846
C 0.149962872 5.518528938 1.087620974
N -4.442034721 5.647528648 2.825618982
C -5.789034843 5.481528282 3.350612402
C -6.293036461 4.034529209 3.279613733
O -5.713036537 3.204531670 2.578617334
C -6.762036324 6.460528374 2.621616602
C -7.056035042 6.086529732 1.161618710
C -8.184036255 5.345528603 0.835614264
C -6.174035072 6.452528954 0.123616070
C -8.460039139 4.994528770 -0.480379939
C -6.407034874 6.082528114 -1.212382317
C -7.559035301 5.359528542 -1.504381895
O -7.834034920 4.994528770 -2.786380529
