195

S 1.458406925 0.365034252 -0.207834885
N 0.322332352 -0.373734057 -0.631946564
N 0.853708863 0.631444812 -0.492519975
P -1.417385817 -2.726168156 -1.340082765
Cl -0.178383380 -0.520914555 -0.426105678
Cl 0.302079678 0.735438764 0.739792764
C -1.617021799 -0.707631707 -0.563277781
Cl -0.616856039 -1.326806188 -0.820878148
F -1.546152592 0.151576906 -0.939519525
F 0.546189904 0.968558669 0.020720620
S 1.942492366 -0.931406856 2.774446249
B -1.460840940 -2.351629734 -1.342594266
Cl 0.344655186 -1.562120914 0.461016238
Cl -0.193840683 0.183101743 -0.232940078
N 0.752218127 1.655434370 -0.180885032
I -0.391897142 -1.037311196 -0.902227104
F -0.044105522 2.010793924 0.295529038
B -0.619424701 2.282636404 -1.294769764
F -0.718574762 0.753603995 0.666571975
Br 2.282400131 1.800100088 4.417504311
N 7.154518127 -1.015096188 0.672495365
C 6.743518829 -1.666097164 1.913500190
C 7.785518646 -2.693095207 2.423495531
O 7.871518135 -3.787094593 1.871492863
C 5.428518295 -2.385097504 1.531496525
C 4.974518776 -1.749095440 0.278497994
C 6.183518410 -1.210095882 -0.418500483
N 5.281518936 -4.960096836 6.657493591
C 4.461518288 -4.230095387 5.702491760
C 4.548518181 -4.726097584 4.243492126
O 3.879516602 -4.167095184 3.368494749
C 4.767518044 -2.730095387 5.799491882
O 4.232517719 -2.161096573 7.003494263
N 5.338518143 -5.774097919 3.975494385
C 5.545518875 -6.285097599 2.596499681
C 4.255518436 -6.531095982 1.790499449
O 3.271516800 -7.061098576 2.306498766
C 6.417518616 -7.550096989 2.614497423
C 7.182518005 -7.800096989 1.321497917
C 8.092518806 -9.024095535 1.388499022
C 8.855517387 -9.240095139 0.076494530
N 8.061517715 -8.988096237 -1.169499874
N 4.258517742 -6.141096592 0.521494389
C 3.071516991 -6.288097858 -0.322499871
C 2.010516405 -5.216097355 -0.084500782
O 0.918516994 -5.316097736 -0.644506037
N 2.307516336 -4.212095261 0.757494450
C 1.394517899 -3.064095020 0.998499453
C 0.372517377 -3.217094898 2.134494066
O -0.851483941 -3.013096333 1.933496714
N 0.886517406 -3.557095051 3.326494932
C 0.097517736 -3.873095036 4.526496887
C 0.529516935 -3.121096134 5.757492065
O 1.670517445 -2.677096367 5.869491577
C 0.156517714 -5.374096394 4.844497681
C -0.482482105 -6.199097157 3.767496824
C -1.875481844 -6.327097416 3.707499266
C 0.295517653 -6.840097904 2.789500475
C -2.483484268 -7.079096317 2.706500292
C -0.300483018 -7.589098454 1.782496214
C -1.692483425 -7.698095798 1.747500181
O -2.317483902 -8.427095413 0.749498844
N -0.411482990 -2.977095127 6.685493469
C -0.089482479 -2.536095619 8.048497200
C -0.458481938 -3.698095798 8.974499702
O -1.457482815 -4.413095474 8.737500191
C -0.815482616 -1.226096630 8.419499397
C -2.337484360 -1.250096798 8.258496284
S -3.226484299 0.235903382 8.832501411
C -4.888481140 -0.426095188 8.622502327
N -3.803483963 -5.735096455 7.256492615
C -4.843481064 -4.969097614 6.525497437
C -4.190481186 -4.214094162 5.347496033
O -3.132482529 -3.543095112 5.508491516
C -5.599481583 -3.995094776 7.479492188
C -6.350481033 -2.928095341 6.716491699
C -6.571481705 -4.775097370 8.375500679
N -4.797481537 -4.352095127 4.162490845
C -4.300481796 -3.672094822 2.964495897
C -4.377481461 -2.149097443 3.048495531
O -5.382480621 -1.575095654 3.538500547
N -3.305482864 -1.513097525 2.603495836
C -3.250482559 -0.065095112 2.370494127
C -3.304483414 0.269903719 0.891497254
O -2.914484024 -0.522095919 0.063494042
C -1.965482473 0.518904030 2.942500353
C -1.933482885 0.599903524 4.477493286
C -0.601483583 1.169903278 4.965492249
C -3.092483521 1.441904783 4.996490479
N -3.782483578 1.464903355 0.565493107
C -3.776483059 1.976905227 -0.807500362
C -3.185483932 3.391903877 -0.779500484
O -3.402482986 4.143903255 0.213495553
C -5.207481384 1.994904876 -1.396504879
C -5.791481018 0.601904333 -1.555501461
C -5.746480942 -0.047095463 -2.781506300
C -6.365482330 -0.084096104 -0.470502496
C -6.275482178 -1.326097012 -2.946499586
C -6.895481110 -1.355096340 -0.617505670
C -6.843481064 -1.980096221 -1.864506960
O -7.325481415 -3.273094654 -2.064503908
N -2.434482574 3.741902828 -1.839505434
C -1.982482672 5.120902538 -2.057500362
C -2.940483093 5.981902599 -2.923504591
O -3.413482666 5.541902065 -3.979503870
C -0.609483123 5.117902279 -2.717503309
O -0.234482914 6.450902462 -3.016499281
N 0.022517022 7.479900837 -5.792503357
C 1.046517372 6.678903103 -6.443504333
C 0.436517417 5.458901882 -7.086502075
O -0.663482070 5.075902462 -6.753509521
C 2.173516512 6.307902813 -5.457504272
C 2.975516319 7.504901409 -4.970504761
S 4.326517582 7.070903301 -3.850506544
C 3.426516533 6.106902599 -2.638500929
N 1.142517090 4.877902508 -8.041502953
C 0.680516958 3.679902554 -8.725504875
C 1.433517218 2.500905514 -8.080504417
O 2.639516830 2.582904339 -7.797508240
C 0.965517104 3.792902946 -10.238497734
N 0.706516981 1.428904295 -7.806503296
C 1.255517960 0.252903521 -7.156509399
C 1.700517178 -0.799096406 -8.191502571
O 0.897517085 -1.257096767 -9.026499748
C 0.189517707 -0.352095842 -6.227508545
C 0.598517299 -1.710095882 -5.652503967
C 0.119517095 -2.957094669 -6.016502380
C 1.590516567 -1.940095425 -4.637504578
N 0.758517027 -3.935095787 -5.277503967
C 1.668516636 -3.339094639 -4.434509277
C 2.431516647 -1.092095852 -3.888500929
C 2.538516998 -3.911095619 -3.487499952
C 3.308516502 -1.649096966 -2.963505507
C 3.341516495 -3.060095310 -2.756504774
N 2.962516785 -1.206096172 -8.125502586
C 3.392516136 -2.333097458 -8.947497368
C 3.692516327 -3.548096180 -8.089507103
O 4.698518753 -3.556095600 -7.340507507
C 4.593518257 -2.018096685 -9.840502739
C 4.639518738 -3.043095112 -10.956500053
C 4.465517998 -0.628096998 -10.441500664
N 2.790516853 -4.543096066 -8.198504448
C 2.836516380 -5.807096958 -7.450508118
C 4.238518238 -6.396097660 -7.445503235
O 4.857518196 -6.543097019 -6.377502441
N 7.340517998 -4.828096867 -5.569503784
C 6.871518135 -4.461097240 -4.205504417
C 6.965517998 -2.956095219 -3.897503614
O 7.585518837 -2.537095070 -2.899502516
C 7.608518600 -5.289097309 -3.109501600
C 7.146518707 -4.953096867 -1.682500124
O 5.957518578 -4.938097477 -1.383504391
N 8.098518372 -4.663097858 -0.802503109
N 6.357518196 -2.135097504 -4.749504089
C 6.490518570 -0.699096143 -4.552505493
C 5.368518829 0.105904244 -5.138504028
O 4.641518593 -0.375096560 -6.033508301
C 7.871518135 -0.173096925 -5.016502380
C 8.108517647 -0.296096206 -6.519508362
O 7.241518021 -0.685096204 -7.302505493
N 9.306517601 0.067904010 -6.924507141
N 5.204518318 1.305902958 -4.583503723
C 4.331517696 2.319903851 -5.180503845
C 5.275518417 3.341904640 -5.785507202
O 6.349518776 3.608902931 -5.220504761
C 3.502516747 3.068904400 -4.129508495
C 2.296516657 2.376904964 -3.507504225
C 1.087517738 2.138904095 -4.091505051
C 2.188516855 1.898904562 -2.158505201
N 0.243517607 1.513903618 -3.205502272
C 0.896517634 1.364903212 -2.005506039
C 3.073516846 1.849904776 -1.072499752
C 0.455517471 0.797903478 -0.796506405
C 2.630517006 1.292904377 0.124498636
C 1.334517479 0.772903860 0.245493218
N -2.198482513 7.717901707 2.688494921
C -2.179483414 6.244903088 2.663501024
C -3.397483826 5.714902401 3.435496092
O -3.507482529 5.860902309 4.660491943
C -0.856483102 5.639903545 3.190493822
C 0.432516754 5.630902767 2.325495958
C 1.599517345 4.996901989 3.072497606
C 0.275517195 4.960902691 0.969500124
N -4.316480637 5.089902401 2.707499743
C -5.663480759 4.923902035 3.232493162
C -6.167482376 3.476904392 3.161494493
O -5.587482452 2.646905422 2.460498095
C -6.636482239 5.902902126 2.503497362
C -6.930480957 5.528903484 1.043497801
C -8.058481216 4.787902355 0.717493534
C -6.048480988 5.894902706 0.005495486
C -8.334483147 4.436902523 -0.598500729
C -6.281480789 5.524901867 -1.330502987
C -7.433481216 4.801902294 -1.622502565
O -7.708481312 4.436902523 -2.904499769
