195

Br 2.791417360 2.083247900 0.477335006
Cl 2.719926596 2.436438084 3.305986166
O 1.868035674 1.839962006 0.671359122
B -2.540572405 -2.615961790 -4.054107189
I -1.183341861 -2.490940571 -2.802176237
O 0.474154890 2.536451101 0.799455762
S -1.327927589 -1.392320871 -1.992090702
F -1.700117946 -3.596028090 -1.355791092
C -1.227936506 -0.997209907 -2.506308079
C 0.971488595 1.283411503 0.000826734
B 2.951076269 2.356287718 1.819594026
B -3.753918409 -2.625591278 0.235635474
B -3.136826515 -2.961737156 -0.292832404
Cl -3.003309727 -2.822101355 0.057848658
I 1.287502885 1.086347580 1.433433533
F -1.537532091 -3.675420046 -2.722816706
F 1.471993566 2.811806917 3.421281338
C 2.862661839 2.423718452 -0.376121581
N -0.983446240 1.393551469 -0.762013912
C 2.996671438 2.926087618 4.641500950
N 6.988691807 -0.125421107 0.967525303
C 6.577692509 -0.776422501 2.208529949
C 7.619692326 -1.803421021 2.718524456
O 7.705691814 -2.897420168 2.166522503
C 5.262691975 -1.495422602 1.826525569
C 4.808692455 -0.859420717 0.573527813
C 6.017692089 -0.320420474 -0.123471171
N 5.115692616 -4.070420265 6.952518463
C 4.295691967 -3.340421915 5.997516632
C 4.382691860 -3.836421728 4.538516998
O 3.713687420 -3.277421236 3.663523674
C 4.601691723 -1.840421200 6.094516754
O 4.066690922 -1.271421432 7.298519135
N 5.172691822 -4.884421349 4.270519257
C 5.379692554 -5.395421028 2.891528606
C 4.089692593 -5.641419411 2.085529327
O 3.105687618 -6.171422005 2.601527691
C 6.251692295 -6.660420418 2.909526348
C 7.016691685 -6.910420418 1.616526961
C 7.926693439 -8.134416580 1.683528066
C 8.689687729 -8.350416183 0.371524066
N 7.895690441 -8.098417282 -0.874470055
N 4.092692852 -5.251420021 0.816524327
C 2.905687809 -5.398421288 -0.027470388
C 1.844688535 -4.326420784 0.210528538
O 0.752688825 -4.426421165 -0.349476278
N 2.141686440 -3.322421312 1.052524209
C 1.228690505 -2.174420595 1.293528914
C 0.206689745 -2.327420473 2.429522991
O -1.017312646 -2.123421907 2.228527069
N 0.720689476 -2.667420626 3.621523857
C -0.068310067 -2.983420610 4.821521759
C 0.363689333 -2.231421709 6.052516937
O 1.504690051 -1.787422180 6.164516449
C -0.009310102 -4.484419823 5.139522552
C -0.648310125 -5.309420586 4.062521935
C -2.041310310 -5.437420845 4.002525330
C 0.129689857 -5.950421333 3.084529400
C -2.649313450 -6.189419746 3.001529217
C -0.466310591 -6.699421883 2.077526093
C -1.858310580 -6.808419228 2.042530060
O -2.483313084 -7.537417412 1.044528604
N -0.577310801 -2.087420702 6.980518341
C -0.255310178 -1.646421194 8.343527794
C -0.624309957 -2.808421373 9.269530296
O -1.623310208 -3.523421526 9.032530785
C -0.981310785 -0.336421221 8.714529991
C -2.503313541 -0.360421509 8.553526878
S -3.392313480 1.125578642 9.127532005
C -5.054307461 0.463579834 8.917532921
N -3.969312191 -4.845419884 7.551517487
C -5.009307384 -4.079421043 6.820522308
C -4.356307507 -3.324420214 5.642520905
O -3.298311710 -2.653420687 5.803516388
C -5.765307903 -3.105420351 7.774517059
C -6.516307354 -2.038420916 7.011516571
C -6.737308025 -3.885425091 8.670531273
N -4.963307858 -3.462421179 4.457515717
C -4.466308117 -2.782420397 3.259524822
C -4.543307781 -1.259422302 3.343524456
O -5.548306942 -0.685420930 3.833529472
N -3.471312046 -0.623422563 2.898524761
C -3.416311741 0.824579895 2.665523052
C -3.470312595 1.159578800 1.186526179
O -3.080313206 0.367579162 0.358523488
C -2.131311417 1.408578873 3.237529278
C -2.099311352 1.489578485 4.772518158
C -0.767311633 2.059578180 5.260517120
C -3.258312702 2.331578970 5.291515350
N -3.948312283 2.354578257 0.860523224
C -3.942311764 2.866579771 -0.512470543
C -3.351313114 4.281579971 -0.484470725
O -3.568312168 5.033579826 0.508525133
C -5.373307705 2.884579420 -1.101475835
C -5.957307339 1.491579294 -1.260472417
C -5.912307262 0.842579424 -2.486477375
C -6.531308651 0.805578887 -0.175473094
C -6.441308498 -0.436421961 -2.651470661
C -7.061307430 -0.465421259 -0.322476149
C -7.009307384 -1.090421200 -1.569477916
O -7.491307735 -2.383420229 -1.769476056
N -2.600311756 4.631580353 -1.544476390
C -2.148311615 6.010579109 -1.762472034
C -3.106312275 6.871579170 -2.628475666
O -3.579311848 6.431578636 -3.684473515
C -0.775311172 6.007578850 -2.422474384
O -0.400310546 7.340579033 -2.721470356
N -0.143310711 8.369579315 -5.497478485
C 0.880689442 7.568579674 -6.148479462
C 0.270689785 6.348578453 -6.791477203
O -0.829310119 5.965579033 -6.458484650
C 2.007687092 7.197579384 -5.162479401
C 2.809687138 8.394578934 -4.675479889
S 4.160691738 7.960579872 -3.555477619
C 3.260687351 6.996579170 -2.343472004
N 0.976690054 5.767579079 -7.746474266
C 0.514689028 4.569580078 -8.430474281
C 1.267689824 3.390579939 -7.785476685
O 2.473687649 3.472578764 -7.502483368
C 0.799688876 4.682580948 -9.943467140
N 0.540688813 2.318578482 -7.511478424
C 1.089690804 1.142578602 -6.861484528
C 1.534689784 0.090578824 -7.896477699
O 0.731689036 -0.367421478 -8.731469154
C 0.023689877 0.537579238 -5.932483673
C 0.432689697 -0.820421278 -5.357479095
C -0.046310708 -2.067420244 -5.721477509
C 1.424689174 -1.050420523 -4.342479706
N 0.592688859 -3.045421362 -4.982479095
C 1.502689242 -2.449420214 -4.139484406
C 2.265687466 -0.202420428 -3.593472004
C 2.372687817 -3.021421194 -3.192471027
C 3.142687321 -0.759422541 -2.668476582
C 3.175687313 -2.170420885 -2.461475849
N 2.796687603 -0.316420764 -7.830474854
C 3.226686954 -1.443422556 -8.652466774
C 3.526687145 -2.658421755 -7.794480324
O 4.532692432 -2.666421175 -7.045482635
C 4.427691936 -1.128421783 -9.545472145
C 4.473692417 -2.153420687 -10.661469460
C 4.299691677 0.261578172 -10.146470070
N 2.624687672 -3.653421164 -7.903477669
C 2.670687199 -4.917420387 -7.155483246
C 4.072691441 -5.506421089 -7.150478363
O 4.691691875 -5.653420448 -6.082477570
N 7.174691677 -3.938422918 -5.274478912
C 6.705691814 -3.571422815 -3.910477161
C 6.799691677 -2.066420794 -3.602474689
O 7.419692516 -1.647420645 -2.604473591
C 7.442692280 -4.399420738 -2.814472675
C 6.980692387 -4.063420296 -1.387471080
O 5.791692257 -4.048420906 -1.088475347
N 7.932692051 -3.773422480 -0.507473290
N 6.191691875 -1.245422363 -4.454479218
C 6.324692249 0.190579027 -4.257480621
C 5.202692509 0.995579243 -4.843479156
O 4.475692272 0.514578521 -5.738483429
C 7.705691814 0.716578007 -4.721477509
C 7.942690372 0.593578815 -6.224483490
O 7.075691700 0.204578921 -7.007480621
N 9.140687943 0.957579076 -6.629482269
N 5.038691998 2.195577860 -4.288478851
C 4.165691853 3.209578276 -4.885478973
C 5.109692097 4.231580734 -5.490482330
O 6.183692455 4.498580933 -4.925479889
C 3.336687565 3.958578825 -3.834480762
C 2.130686760 3.266579390 -3.212475300
C 0.921689987 3.028578520 -3.796475887
C 2.022687912 2.788579226 -1.863475919
N 0.077689953 2.403578520 -2.910473347
C 0.730689585 2.254577875 -1.710477233
C 2.907687664 2.739579439 -0.777469873
C 0.289689869 1.687578440 -0.501476586
C 2.464687824 2.182579756 0.419528216
C 1.168690324 1.662578821 0.540522873
N -2.364311695 8.607578278 2.983523846
C -2.345312595 7.134579659 2.958529949
C -3.563313007 6.604578972 3.730525017
O -3.673311710 6.750578880 4.955516815
C -1.022311449 6.529580116 3.485522747
C 0.266689092 6.520579338 2.620524883
C 1.433689952 5.886578560 3.367526531
C 0.109689511 5.850579262 1.264529347
N -4.482306957 5.979578972 3.002528667
C -5.829307079 5.813578606 3.527522087
C -6.333308697 4.366580009 3.456523418
O -5.753308773 3.536579847 2.755527020
C -6.802308559 6.792578697 2.798526287
C -7.096307278 6.418580055 1.338527083
C -8.224309921 5.677578926 1.012523174
C -6.214307308 6.784579277 0.300524861
C -8.500312805 5.326579094 -0.303471118
C -6.447307110 6.414578438 -1.035473824
C -7.599307537 5.691578865 -1.327473521
O -7.874306202 5.326579094 -2.609470844
