195

C 1.694003582 1.092560053 -0.664712846
N -0.797790170 -0.090175271 -0.095166154
N 0.876218021 -0.594951212 -0.951365352
P -0.252415180 -2.198242188 0.019456333
S -0.938567400 -0.373876899 -0.285739183
N 0.093148001 -0.173829585 0.848991215
C -1.534708261 -0.751242757 -0.801411748
Cl 0.159775287 -0.746857166 -0.135185555
F -2.069790602 0.730900347 -1.078063965
F 0.990993559 1.200874567 -0.051251166
S 0.748422980 -0.004240904 1.713977575
B -0.627595305 -0.739573598 -1.375670552
N -0.359600812 -0.835792243 0.357777923
Cl -1.479944706 -1.092730284 -0.752273798
F 0.883992612 0.233212560 -0.549644172
Cl 0.477964640 -1.421775460 -0.016050346
F 0.612340569 1.132858515 0.657273054
C -0.885130048 1.705738902 -1.556722283
O 0.045001492 0.897940695 0.934821546
Br 2.363682032 2.029201984 3.780959368
N 7.293490410 -1.015357375 0.776758790
C 6.882491112 -1.666358590 2.017763615
C 7.924490929 -2.693356514 2.527758837
O 8.010490417 -3.787355900 1.975756049
C 5.567490578 -2.385358810 1.635759592
C 5.113491058 -1.749356866 0.382761389
C 6.322490692 -1.210357308 -0.314237088
N 5.420491219 -4.960357666 6.761756897
C 4.600490570 -4.230356216 5.806755066
C 4.687490463 -4.726358414 4.347755432
O 4.018489838 -4.167356014 3.472758055
C 4.906490326 -2.730356693 5.903755188
O 4.371490002 -2.161357880 7.107757568
N 5.477490425 -5.774358749 4.079757690
C 5.684491158 -6.285358429 2.700762987
C 4.394490719 -6.531356812 1.894762516
O 3.410490036 -7.061359406 2.410762072
C 6.556490898 -7.550357819 2.718760729
C 7.321490288 -7.800357819 1.425760984
C 8.231491089 -9.024357796 1.492762208
C 8.994489670 -9.240357399 0.180757865
N 8.200489998 -8.988358498 -1.065236807
N 4.397490025 -6.141357422 0.625757813
C 3.210490227 -6.288358688 -0.218236521
C 2.149489403 -5.216358185 0.019762574
O 1.057489872 -5.316358566 -0.540242612
N 2.446489573 -4.212356091 0.861757874
C 1.533490658 -3.064356327 1.102762580
C 0.511490285 -3.217356205 2.238757372
O -0.712511003 -3.013357639 2.037760258
N 1.025490284 -3.557356358 3.430758238
C 0.236490667 -3.873356342 4.630760193
C 0.668489754 -3.121357441 5.861755371
O 1.809490204 -2.677357674 5.973754883
C 0.295490682 -5.374357224 4.948760986
C -0.343509078 -6.199357986 3.871760130
C -1.736509085 -6.327358246 3.811762571
C 0.434490621 -6.840358734 2.893763781
C -2.344511032 -7.079357147 2.810763597
C -0.161510110 -7.589359283 1.886759281
C -1.553510666 -7.698356628 1.851763248
O -2.178510666 -8.427357674 0.853762269
N -0.272510082 -2.977356434 6.789756775
C 0.049490459 -2.536356926 8.152760506
C -0.319508970 -3.698357105 9.078763008
O -1.318510056 -4.413356304 8.841763496
C -0.676509678 -1.226358056 8.523762703
C -2.198511124 -1.250358224 8.362759590
S -3.087511063 0.235641912 8.936764717
C -4.749508858 -0.426356643 8.726765633
N -3.664510727 -5.735357285 7.360755920
C -4.704508781 -4.969358444 6.629760742
C -4.051508904 -4.214354992 5.451759338
O -2.993509293 -3.543356419 5.612754822
C -5.460509300 -3.995355844 7.583755493
C -6.211508751 -2.928356647 6.820755005
C -6.432509422 -4.775358200 8.479763985
N -4.658509254 -4.352355957 4.266754150
C -4.161509514 -3.672356129 3.068759203
C -4.238509178 -2.149358749 3.152758837
O -5.243508339 -1.575357080 3.642763853
N -3.166509628 -1.513358951 2.707759142
C -3.111509323 -0.065356523 2.474757433
C -3.165510178 0.269642293 0.995760560
O -2.775510788 -0.522357404 0.167757377
C -1.826509476 0.518642783 3.046763659
C -1.794510126 0.599642277 4.581756592
C -0.462510705 1.169641852 5.069755554
C -2.953510284 1.441643357 5.100753784
N -3.643510342 1.464641929 0.669756532
C -3.637509823 1.976644397 -0.703236938
C -3.046510696 3.391642570 -0.675237060
O -3.263509750 4.143642426 0.317758948
C -5.068509102 1.994644046 -1.292241693
C -5.652508736 0.601643085 -1.451238275
C -5.607508659 -0.047356870 -2.677242994
C -6.226510048 -0.084357515 -0.366239101
C -6.136509895 -1.326358438 -2.842236280
C -6.756508827 -1.355357766 -0.513242245
C -6.704508781 -1.980357766 -1.760243893
O -7.186509132 -3.273355961 -1.960240960
N -2.295509338 3.741641521 -1.735242367
C -1.843509674 5.120641708 -1.953237414
C -2.801509857 5.981641769 -2.819241285
O -3.274509430 5.541641235 -3.875240564
C -0.470510274 5.117641449 -2.613240004
O -0.095510043 6.450641632 -2.912235975
N 0.161489964 7.479640007 -5.688240051
C 1.185490131 6.678642273 -6.339241028
C 0.575490355 5.458641052 -6.982238770
O -0.524509132 5.075641632 -6.649246216
C 2.312489748 6.307641983 -5.353240967
C 3.114489555 7.504640579 -4.866241455
S 4.465489864 7.070642471 -3.746243238
C 3.565489769 6.106641769 -2.534237623
N 1.281489849 4.877641678 -7.937239170
C 0.819489896 3.679641247 -8.621241570
C 1.572489977 2.500644207 -7.976241589
O 2.778490067 2.582643032 -7.693244934
C 1.104490042 3.792641640 -10.134234428
N 0.845489919 1.428642869 -7.702239990
C 1.394490719 0.252642095 -7.052246094
C 1.839489937 -0.799357653 -8.087239265
O 1.036489964 -1.257358193 -8.922236443
C 0.328490674 -0.352357298 -6.123245239
C 0.737490177 -1.710357308 -5.548240662
C 0.258490026 -2.957355976 -5.912239075
C 1.729489326 -1.940356851 -4.533241272
N 0.897489965 -3.935357094 -5.173240662
C 1.807489395 -3.339355946 -4.330245972
C 2.570489883 -1.092357278 -3.784237623
C 2.677490234 -3.911356926 -3.383236647
C 3.447489738 -1.649358392 -2.859242201
C 3.480489731 -3.060356617 -2.652241468
N 3.101490021 -1.206357598 -8.021238327
C 3.531489372 -2.333358765 -8.843234062
C 3.831489563 -3.548357487 -7.985243320
O 4.837491035 -3.556356907 -7.236244202
C 4.732490540 -2.018358231 -9.736239433
C 4.778491020 -3.043356419 -10.852236748
C 4.604490280 -0.628358245 -10.337237358
N 2.929490089 -4.543356895 -8.094242096
C 2.975489616 -5.807357788 -7.346244812
C 4.377490520 -6.396358490 -7.341239929
O 4.996490479 -6.543357849 -6.273239136
N 7.479490280 -4.828357697 -5.465240479
C 7.010490417 -4.461358070 -4.101241112
C 7.104490280 -2.956356525 -3.793240309
O 7.724491119 -2.537356377 -2.795239210
C 7.747490883 -5.289358139 -3.005238295
C 7.285490990 -4.953357697 -1.578237057
O 6.096490860 -4.938358307 -1.279241204
N 8.237490654 -4.663358688 -0.698239684
N 6.496490479 -2.135358810 -4.645240784
C 6.629490852 -0.699357390 -4.448242188
C 5.507491112 0.105642825 -5.034240723
O 4.780490875 -0.375358015 -5.929244995
C 8.010490417 -0.173358336 -4.912239075
C 8.247489929 -0.296357602 -6.415245056
O 7.380490303 -0.685357451 -7.198242188
N 9.445489883 0.067642592 -6.820243835
N 5.343490601 1.305641532 -4.479240417
C 4.470489979 2.319642544 -5.076240540
C 5.414490700 3.341643333 -5.681243896
O 6.488491058 3.608641624 -5.116241455
C 3.641489983 3.068643093 -4.025244713
C 2.435489893 2.376643658 -3.403240919
C 1.226490498 2.138642788 -3.987241983
C 2.327490091 1.898643136 -2.054241896
N 0.382490575 1.513642192 -3.101238966
C 1.035490513 1.364641786 -1.901242971
C 3.212490082 1.849643350 -0.968236387
C 0.594490349 0.797642231 -0.692242980
C 2.769490242 1.292642951 0.228762001
C 1.473490238 0.772642612 0.349756628
N -2.059509277 7.717640877 2.792758226
C -2.040510178 6.244642258 2.767764330
C -3.258510590 5.714641571 3.539759398
O -3.368509293 5.860641479 4.764755249
C -0.717510164 5.639642715 3.294757128
C 0.571489692 5.630641937 2.429759264
C 1.738490105 4.996641159 3.176760912
C 0.414490163 4.960641861 1.073763132
N -4.177508354 5.089641571 2.811763048
C -5.524508476 4.923641205 3.336756468
C -6.028510094 3.476643085 3.265757799
O -5.448510170 2.646644115 2.564761400
C -6.497509956 5.902641296 2.607760668
C -6.791508675 5.528642654 1.147760868
C -7.919508934 4.787641525 0.821756959
C -5.909508705 5.894641876 0.109758832
C -8.195510864 4.436641693 -0.494237334
C -6.142508507 5.524641037 -1.226239800
C -7.294508934 4.801641464 -1.518239498
O -7.569509029 4.436641693 -2.800236464
