195

S 2.050804615 0.206485078 -0.727664948
N 0.125704020 -0.184082940 -0.307172030
N 0.840750277 1.089766502 -1.251607418
P -0.590234339 -2.830649614 -0.627715528
Cl -0.588763356 -0.539035857 -0.109435201
N 0.342869669 0.899838209 0.840777099
C -1.641042113 -1.170902729 -0.471979618
Cl -0.595675230 -0.737540841 -0.683180928
S -1.954610348 0.637623489 -1.135975838
C 0.825633168 0.804338217 0.064433247
S 1.450630307 -0.770662785 2.717380285
N -1.196524858 -1.806881070 -1.044350863
N 0.316086262 -1.901458383 0.520947218
Cl -1.192532063 0.046784770 -0.282749236
N 1.040023088 1.256509185 -0.020539690
I -0.526604772 -1.178378224 -0.452191204
F 0.212185249 1.933376908 0.619717658
S -0.609431922 2.030126333 -2.076649904
F -0.500550151 0.755676210 0.324599355
Br 2.191282511 1.459068298 4.103357315
N 7.093580723 -1.014860034 0.739333630
C 6.682581425 -1.665861130 1.980338454
C 7.724581242 -2.692858934 2.490333557
O 7.810580730 -3.786858320 1.938331127
C 5.367580891 -2.384861231 1.598334789
C 4.913581371 -1.748859406 0.345336258
C 6.122581005 -1.209859848 -0.351662219
N 5.220581532 -4.959860802 6.724331856
C 4.400580883 -4.229859352 5.769330025
C 4.487580776 -4.725861549 4.310330391
O 3.818579674 -4.166859150 3.435332775
C 4.706580639 -2.729859114 5.866330147
O 4.171580315 -2.160860300 7.070332527
N 5.277580738 -5.773861885 4.042332649
C 5.484581470 -6.284861565 2.663337708
C 4.194581032 -6.530859947 1.857337713
O 3.210579872 -7.060862541 2.373336792
C 6.356581211 -7.549860954 2.681335449
C 7.121580601 -7.799860954 1.388336182
C 8.031581879 -9.023859978 1.455337286
C 8.794580460 -9.239859581 0.143332794
N 8.000580788 -8.987860680 -1.102661610
N 4.197580338 -6.140860558 0.588332653
C 3.010580063 -6.287861824 -0.255661607
C 1.949579358 -5.215861320 -0.017662516
O 0.857580006 -5.315861702 -0.577667773
N 2.246579409 -4.211859226 0.824332714
C 1.333580852 -3.063858747 1.065337658
C 0.311580360 -3.216858625 2.201332092
O -0.912420928 -3.012860060 2.000334978
N 0.825580418 -3.556858778 3.393332958
C 0.036580730 -3.872858763 4.593335152
C 0.468579918 -3.120859861 5.824330330
O 1.609580398 -2.676860094 5.936329842
C 0.095580719 -5.373860359 4.911335945
C -0.543419123 -6.198861122 3.834334850
C -1.936418891 -6.326861382 3.774337292
C 0.234580651 -6.839861870 2.856338501
C -2.544421196 -7.078860283 2.773338318
C -0.361420035 -7.588862419 1.849334478
C -1.753420472 -7.697859764 1.814338446
O -2.378420830 -8.426859856 0.816337109
N -0.472420007 -2.976858854 6.752331734
C -0.150419474 -2.535859346 8.115336418
C -0.519418955 -3.697859526 9.041338921
O -1.518419862 -4.412859440 8.804339409
C -0.876419604 -1.225860596 8.486338615
C -2.398421288 -1.249860764 8.325335503
S -3.287421227 0.236139461 8.899340630
C -4.949418545 -0.425859123 8.689341545
N -3.864420891 -5.734860420 7.323330879
C -4.904418468 -4.968861580 6.592335701
C -4.251418591 -4.213858128 5.414334297
O -3.193419456 -3.542858839 5.575329781
C -5.660418987 -3.994858503 7.546330452
C -6.411418438 -2.927859068 6.783329964
C -6.632419109 -4.774861336 8.442339897
N -4.858418941 -4.351859093 4.229329109
C -4.361419201 -3.671858549 3.031333923
C -4.438418865 -2.148861170 3.115333557
O -5.443418026 -1.574859619 3.605338573
N -3.366419792 -1.512861490 2.670333862
C -3.311419487 -0.064859018 2.437332153
C -3.365420341 0.270139784 0.958335519
O -2.975420952 -0.521859825 0.130332306
C -2.026419401 0.519140184 3.009338379
C -1.994419932 0.600139678 4.544331551
C -0.662420571 1.170139313 5.032330513
C -3.153420448 1.442140818 5.063328743
N -3.843420506 1.465139389 0.632331371
C -3.837419987 1.977141500 -0.740662098
C -3.246420860 3.392140150 -0.712662220
O -3.463419914 4.144139290 0.280333817
C -5.268418789 1.995141149 -1.329666615
C -5.852418423 0.602140486 -1.488663197
C -5.807418346 -0.046859372 -2.714668274
C -6.426419735 -0.083860010 -0.403664231
C -6.336419582 -1.325860977 -2.879661560
C -6.956418514 -1.354860306 -0.550667405
C -6.904418468 -1.979860187 -1.797668695
O -7.386418819 -3.272858381 -1.997665882
N -2.495419502 3.742139101 -1.772667170
C -2.043419600 5.121138573 -1.990662336
C -3.001420021 5.982138634 -2.856666565
O -3.474419594 5.542138100 -3.912665844
C -0.670420110 5.118138313 -2.650665283
O -0.295419931 6.451138496 -2.949661255
N -0.038419977 7.480136871 -5.725665092
C 0.985580206 6.679139137 -6.376666069
C 0.375580400 5.459137917 -7.019663811
O -0.724419057 5.076138496 -6.686671257
C 2.112579584 6.308138847 -5.390666008
C 2.914579391 7.505137444 -4.903666496
S 4.265580177 7.071139336 -3.783668518
C 3.365579605 6.107138634 -2.571662903
N 1.081580043 4.878138542 -7.974664211
C 0.619579971 3.680138826 -8.658665657
C 1.372580171 2.501141787 -8.013666153
O 2.578579903 2.583140612 -7.730669975
C 0.904580116 3.793139219 -10.171658516
N 0.645579994 1.429140329 -7.739665031
C 1.194580913 0.253139585 -7.089671135
C 1.639580131 -0.798860252 -8.124663353
O 0.836580098 -1.256860733 -8.959660530
C 0.128580719 -0.351859778 -6.160670280
C 0.537580311 -1.709859848 -5.585665703
C 0.058580089 -2.956858397 -5.949664116
C 1.529579520 -1.939859390 -4.570666313
N 0.697580040 -3.934859514 -5.210665703
C 1.607579589 -3.338858366 -4.367671013
C 2.370579720 -1.091859818 -3.821662903
C 2.477580070 -3.910859346 -3.420661926
C 3.247579575 -1.648860931 -2.896667480
C 3.280579567 -3.059859037 -2.689666748
N 2.901579857 -1.205860138 -8.058663368
C 3.331579208 -2.332861185 -8.880658150
C 3.631579399 -3.547859907 -8.022668839
O 4.637581348 -3.555859327 -7.273669243
C 4.532580853 -2.017860651 -9.773663521
C 4.578581333 -3.042858839 -10.889660835
C 4.404580593 -0.627860844 -10.374661446
N 2.729579926 -4.542860031 -8.131666183
C 2.775579453 -5.806860924 -7.383669853
C 4.177580833 -6.395861626 -7.378664970
O 4.796580791 -6.542860985 -6.310664177
N 7.279580593 -4.827860832 -5.502665520
C 6.810580730 -4.460861206 -4.138666153
C 6.904580593 -2.955858946 -3.830665588
O 7.524581432 -2.536858797 -2.832664490
C 7.547581196 -5.288861275 -3.042663574
C 7.085581303 -4.952860832 -1.615661860
O 5.896581173 -4.937861443 -1.316666126
N 8.037581444 -4.662861824 -0.735664845
N 6.296580791 -2.134861231 -4.682665825
C 6.429581165 -0.698859990 -4.485667229
C 5.307581425 0.106140330 -5.071665764
O 4.580581188 -0.374860495 -5.966670036
C 7.810580730 -0.172860831 -4.949664116
C 8.047580719 -0.295860142 -6.452670097
O 7.180580616 -0.684860051 -7.235667229
N 9.245580673 0.068140104 -6.857668877
N 5.143580914 1.306138992 -4.516665459
C 4.270580292 2.320140123 -5.113665581
C 5.214581013 3.342140913 -5.718668938
O 6.288581371 3.609139204 -5.153666496
C 3.441579819 3.069140673 -4.062670231
C 2.235579729 2.377141237 -3.440666199
C 1.026580691 2.139140368 -4.024666786
C 2.127579927 1.899140596 -2.091667175
N 0.182580620 1.514139652 -3.138664246
C 0.835580647 1.365139246 -1.938667774
C 3.012579918 1.850140810 -1.005661488
C 0.394580454 0.798139632 -0.729668140
C 2.569580078 1.293140411 0.191336900
C 1.273580432 0.773140013 0.312331498
N -2.259419441 7.718137741 2.755332947
C -2.240420341 6.245139122 2.730339050
C -3.458420753 5.715138435 3.502334118
O -3.568419456 5.861138344 4.727330208
C -0.917420089 5.640139580 3.257331848
C 0.371579736 5.631138802 2.392333984
C 1.538580298 4.997138023 3.139335632
C 0.214580193 4.961138725 1.036338329
N -4.377418041 5.090138435 2.774337769
C -5.724418163 4.924138069 3.299331188
C -6.228419781 3.477140665 3.228332520
O -5.648419857 2.647141695 2.527336121
C -6.697419643 5.903138161 2.570335388
C -6.991418362 5.529139519 1.110336065
C -8.119418144 4.788138390 0.784331799
C -6.109418392 5.895138741 0.072333753
C -8.395420074 4.437138557 -0.531662464
C -6.342418194 5.525137901 -1.263664722
C -7.494418621 4.802138329 -1.555664301
O -7.769418716 4.437138557 -2.837661743
