195

Br 2.729745388 2.537395239 0.307234734
P 2.938173771 2.141203880 2.735893011
S 1.619682670 2.035474777 0.925994754
B -2.216471195 -2.372995853 -3.537446260
Cl -1.258955359 -2.447677612 -2.611464977
O 0.424068600 2.459837198 0.360981762
S -1.528224707 -1.458101034 -2.044288158
I -1.668693662 -3.568855524 -1.574261427
I -1.117596745 -1.532612562 -2.267678261
Cl 0.943433225 0.908586144 -0.199016541
B 3.131675243 2.492001057 1.625934124
B -3.712185383 -2.875742912 -0.147821695
O -2.825585842 -3.064317942 -0.237946123
N -2.600131989 -1.919504404 0.247867838
I 0.974468946 0.608706534 1.400352120
F -1.241318941 -3.381522179 -2.278718472
N 1.402529359 2.844914436 3.316156864
C 2.154021263 2.326322079 -0.515041173
F -0.945747972 1.344133139 -0.339293957
I 2.797113419 2.922755003 4.832561493
N 7.038023472 -0.252449811 1.045860171
C 6.627024174 -0.903451145 2.286865711
C 7.669023991 -1.930449724 2.796860218
O 7.755023479 -3.024448633 2.244858265
C 5.312023640 -1.622451305 1.904860616
C 4.858024120 -0.986449540 0.651862621
C 6.067023754 -0.447449178 -0.045136020
N 5.165024281 -4.197451591 7.030855179
C 4.345023632 -3.467450380 6.075853348
C 4.432023525 -3.963450193 4.616853714
O 3.763019085 -3.404449701 3.741859436
C 4.651023388 -1.967449903 6.172853470
O 4.116022587 -1.398450136 7.376855850
N 5.222023487 -5.011452675 4.348855972
C 5.429024220 -5.522452354 2.969864368
C 4.139024258 -5.768450737 2.163865089
O 3.155019283 -6.298453331 2.679863453
C 6.301023960 -6.787451744 2.987862110
C 7.066023350 -7.037451744 1.694862008
C 7.976025105 -8.261446953 1.761863112
C 8.739016533 -8.477446556 0.449859172
N 7.945022106 -8.225447655 -0.796135247
N 4.142024517 -5.378451347 0.894859135
C 2.955019474 -5.525452614 0.050864734
C 1.894019723 -4.453452110 0.288863748
O 0.802020192 -4.553452492 -0.271141112
N 2.191018105 -3.449449778 1.130859256
C 1.278021693 -2.301449060 1.371863961
C 0.256021082 -2.454448938 2.507858753
O -0.967981160 -2.250450373 2.306862831
N 0.770020843 -2.794449091 3.699859619
C -0.018978698 -3.110449076 4.899858475
C 0.413020700 -2.358450174 6.130853653
O 1.554021239 -1.914450884 6.242853165
C 0.040021267 -4.611451149 5.217859268
C -0.598978758 -5.436451912 4.140858650
C -1.991979003 -5.564452171 4.080862045
C 0.179021224 -6.077452660 3.162865162
C -2.599981785 -6.316451073 3.079864979
C -0.416979223 -6.826453209 2.155861855
C -1.808979392 -6.935450554 2.120865822
O -2.433981419 -7.664448738 1.122863650
N -0.527979374 -2.214449167 7.058855057
C -0.205978811 -1.773449898 8.421863556
C -0.574978590 -2.935449839 9.347866058
O -1.573979020 -3.650449991 9.110866547
C -0.931979418 -0.463449895 8.792865753
C -2.453981876 -0.487450182 8.631862640
S -3.342981815 0.998550057 9.205867767
C -5.004975796 0.336551130 8.995868683
N -3.919980526 -4.972451210 7.629854202
C -4.959975719 -4.206452370 6.898859024
C -4.306975842 -3.451448679 5.720857620
O -3.248980045 -2.780449152 5.881853104
C -5.715976238 -3.232448816 7.852853775
C -6.466975689 -2.165449381 7.089853287
C -6.687976360 -4.012453079 8.748867035
N -4.913976192 -3.589449644 4.535852432
C -4.416976452 -2.909448862 3.337860584
C -4.493976116 -1.386451006 3.421860218
O -5.498975277 -0.812449574 3.911865234
N -3.421980381 -0.750451207 2.976860523
C -3.366980076 0.697551250 2.743858814
C -3.420980930 1.032550097 1.264861226
O -3.030981541 0.240550414 0.436858654
C -2.081979752 1.281550169 3.315865040
C -2.049979687 1.362549782 4.850854874
C -0.717980266 1.932549477 5.338853836
C -3.208981037 2.204550505 5.369852066
N -3.898980618 2.227549791 0.938858032
C -3.892980099 2.739551306 -0.434135348
C -3.301981449 4.154548645 -0.406135559
O -3.518980503 4.906548500 0.586859941
C -5.323976040 2.757550955 -1.023140788
C -5.907975674 1.364550591 -1.182137370
C -5.862975597 0.715550780 -2.408141613
C -6.481976986 0.678550243 -0.097137935
C -6.391976833 -0.563450575 -2.573134899
C -7.011975765 -0.592449903 -0.244141012
C -6.959975719 -1.217449903 -1.491142869
O -7.441976070 -2.510448694 -1.691141009
N -2.550980091 4.504549026 -1.466141343
C -2.098979950 5.883547783 -1.684136987
C -3.056980610 6.744547844 -2.550139904
O -3.529980183 6.304547310 -3.606137753
C -0.725979805 5.880547523 -2.344138622
O -0.350979179 7.213547707 -2.643134594
N -0.093979344 8.242548943 -5.419141769
C 0.930020809 7.441548347 -6.070142746
C 0.320021152 6.221547127 -6.713140488
O -0.779978752 5.838547707 -6.380147934
C 2.057018757 7.070548058 -5.084142685
C 2.859018803 8.267548561 -4.597143173
S 4.210023403 7.833548546 -3.477141857
C 3.310019016 6.869547844 -2.265136242
N 1.026021123 5.640547752 -7.668137550
C 0.564020395 4.442548752 -8.352138519
C 1.317021012 3.263551474 -7.707139969
O 2.523019314 3.345550299 -7.424146652
C 0.849020243 4.555549622 -9.865131378
N 0.590020180 2.191550016 -7.433141708
C 1.139021993 1.015550137 -6.783147812
C 1.584020972 -0.036449920 -7.818140984
O 0.781020403 -0.494450152 -8.653133392
C 0.073021255 0.410550475 -5.854146957
C 0.482020944 -0.947449923 -5.279142380
C 0.003020650 -2.194448709 -5.643140793
C 1.474020362 -1.177449226 -4.264142990
N 0.642020226 -3.172449827 -4.904142380
C 1.552020431 -2.576448679 -4.061147690
C 2.315019131 -0.329449147 -3.515136242
C 2.422019482 -3.148449659 -3.114135265
C 3.192018986 -0.886451185 -2.590140820
C 3.225018978 -2.297449350 -2.383140087
N 2.846019268 -0.443449467 -7.752138138
C 3.276018620 -1.570451260 -8.574131012
C 3.576018810 -2.785450220 -7.716143608
O 4.582024097 -2.793449640 -6.967145920
C 4.477023602 -1.255450487 -9.467136383
C 4.523024082 -2.280449152 -10.583133698
C 4.349023342 0.134549424 -10.068134308
N 2.674019337 -3.780449629 -7.825140953
C 2.720018864 -5.044451714 -7.077146530
C 4.122023106 -5.633452415 -7.072141647
O 4.741023540 -5.780451775 -6.004140854
N 7.224023342 -4.065451622 -5.196142197
C 6.755023479 -3.698451281 -3.832141399
C 6.849023342 -2.193449259 -3.524138927
O 7.469024181 -1.774449348 -2.526137829
C 7.492023945 -4.526452065 -2.736136913
C 7.030024052 -4.190451622 -1.309136033
O 5.841023922 -4.175452232 -1.010140300
N 7.982023716 -3.900450945 -0.429138094
N 6.241023540 -1.372451067 -4.376142502
C 6.374023914 0.063550308 -4.179143906
C 5.252024174 0.868550658 -4.765142441
O 4.525023937 0.387549788 -5.660146713
C 7.755023479 0.589549363 -4.643140793
C 7.992022038 0.466550112 -6.146146774
O 7.125023365 0.077550203 -6.929143906
N 9.190016747 0.830550432 -6.551145554
N 5.088023663 2.068549395 -4.210142136
C 4.215023518 3.082549810 -4.807142258
C 5.159023762 4.104549408 -5.412145615
O 6.233024120 4.371549606 -4.847143173
C 3.386019230 3.831550360 -3.756145000
C 2.180018425 3.139550924 -3.134139538
C 0.971021295 2.901550055 -3.718140125
C 2.072019577 2.661550760 -1.785140872
N 0.127021283 2.276550055 -2.832137585
C 0.780020952 2.127549410 -1.632142186
C 2.957019329 2.612550974 -0.699135065
C 0.339021236 1.560549736 -0.423141420
C 2.514019489 2.055551291 0.497863144
C 1.218021512 1.535550117 0.618857682
N -2.314980030 8.480547905 3.061859608
C -2.295980930 7.007548332 3.036865711
C -3.513981342 6.477547646 3.808860779
O -3.623980045 6.623547554 5.033853531
C -0.972979963 6.402548790 3.563858509
C 0.316020459 6.393548012 2.698860645
C 1.483021140 5.759547234 3.445862293
C 0.159020871 5.723547935 1.342864394
N -4.432975292 5.852547646 3.080864429
C -5.779975414 5.686547279 3.605857849
C -6.283977032 4.239548683 3.534859180
O -5.703977108 3.409551382 2.833862782
C -6.752976894 6.665547371 2.876862049
C -7.046975613 6.291548729 1.416862130
C -8.174981117 5.550547600 1.090858102
C -6.164975643 6.657547951 0.378860027
C -8.450984001 5.199547768 -0.225135982
C -6.397975445 6.287547112 -0.957138836
C -7.549975872 5.564547539 -1.249138474
O -7.824974537 5.199547768 -2.531135082
