195

S 1.465040326 1.490909696 0.172937110
I 1.079201341 0.891459525 1.423329353
N 0.719343483 0.794664443 -0.534075022
P -1.903199553 -2.109536886 -1.580834985
Cl 0.006844403 -0.791152537 -0.546057642
B 0.737363636 1.458450913 1.335126877
C -0.137824118 -1.331157804 0.050244913
F -1.666903019 -1.653943777 -1.065292716
F -1.088983297 -0.299318045 -1.855254650
B 0.349228114 -1.258829713 0.502796412
Cl 2.243144989 0.546964705 1.227641821
C -1.297572374 -2.046612263 -1.272536278
P -1.367174149 -1.927642465 -0.161094010
Cl -1.005011082 -0.534422219 -0.523666978
O 1.453759432 0.678422868 0.600258946
F -0.274474382 -2.419773817 -2.004220724
N 0.101019822 2.466612577 1.291784406
P 0.065624930 1.341037393 -1.496469736
N -0.791228294 1.743777156 0.435946822
F 1.311799765 2.960089922 3.999435902
N 6.971458435 -0.223061085 0.856554091
C 6.560459137 -0.874062061 2.097558498
C 7.602458954 -1.901060939 2.607553482
O 7.688458443 -2.995060444 2.055551291
C 5.245458603 -1.593062401 1.715554833
C 4.791459084 -0.957060337 0.462556601
C 6.000458717 -0.418060720 -0.234441891
N 5.098459244 -4.168060780 6.841552734
C 4.278458595 -3.438062191 5.886550903
C 4.365458488 -3.934061527 4.427551270
O 3.696455956 -3.375061512 3.552552700
C 4.584458351 -1.938061237 5.983551025
O 4.049458027 -1.369061232 7.187553406
N 5.155458450 -4.982061863 4.159553051
C 5.362459183 -5.493061543 2.780557632
C 4.072458744 -5.739059925 1.974557757
O 3.088456154 -6.269062519 2.490556717
C 6.234458923 -6.758060932 2.798555374
C 6.999458313 -7.008060932 1.505556226
C 7.909458160 -8.232057571 1.572557330
C 8.672455788 -8.448057175 0.260553062
N 7.878457069 -8.196058273 -0.985441566
N 4.075458527 -5.349060535 0.705552936
C 2.888456345 -5.496061802 -0.138441309
C 1.827456236 -4.424061298 0.099557728
O 0.735456944 -4.524061680 -0.460447252
N 2.124455452 -3.420061827 0.941553175
C 1.211458206 -2.272060871 1.182558179
C 0.189457625 -2.425060749 2.318552017
O -1.034543753 -2.221062183 2.117555141
N 0.703457594 -2.765060902 3.510552883
C -0.085542105 -3.081060886 4.710556030
C 0.346457213 -2.329061985 5.941551208
O 1.487457752 -1.885062099 6.053550720
C -0.026542114 -4.582060337 5.028556824
C -0.665542006 -5.407061100 3.951554775
C -2.058542013 -5.535061359 3.891557217
C 0.112457886 -6.048061848 2.973558426
C -2.666544914 -6.287060261 2.890558243
C -0.483542770 -6.797062397 1.966554523
C -1.875543118 -6.906059742 1.931558490
O -2.500544548 -7.635058403 0.933557570
N -0.594542861 -2.185060978 6.869552612
C -0.272542268 -1.744060993 8.232555389
C -0.641541839 -2.906061649 9.158556938
O -1.640542507 -3.621062040 8.921557426
C -0.998542547 -0.434061497 8.603556633
C -2.520545006 -0.458061695 8.442553520
S -3.409544945 1.027938366 9.016558647
C -5.071540833 0.365939915 8.806559563
N -3.986543894 -4.943060398 7.440551758
C -5.026540756 -4.177061558 6.709556580
C -4.373540878 -3.422060728 5.531555176
O -3.315543175 -2.751060963 5.692550659
C -5.782541275 -3.203060627 7.663551331
C -6.533540726 -2.136061192 6.900550842
C -6.754541397 -3.983061314 8.559557915
N -4.980541229 -3.560061693 4.346549988
C -4.483541489 -2.880060673 3.148553848
C -4.560541153 -1.357062101 3.232553482
O -5.565540314 -0.783060491 3.722558498
N -3.488543510 -0.721062422 2.787553787
C -3.433543205 0.726939976 2.554552078
C -3.487544060 1.061938643 1.075555921
O -3.097544670 0.269939274 0.247552574
C -2.148542881 1.310939074 3.126558304
C -2.116542816 1.391938686 4.661552429
C -0.784543514 1.961938381 5.149551392
C -3.275544167 2.233939409 5.180549622
N -3.965543985 2.256937981 0.749551833
C -3.959543228 2.768939495 -0.623441637
C -3.368544579 4.183938503 -0.595441759
O -3.585543633 4.935939312 0.397554070
C -5.390541077 2.786939144 -1.212446570
C -5.974540710 1.393939495 -1.371443152
C -5.929540634 0.744939625 -2.597448349
C -6.548542023 0.707939029 -0.286443859
C -6.458541870 -0.534061849 -2.762441635
C -7.078540802 -0.563061237 -0.433446884
C -7.026540756 -1.188060999 -1.680448651
O -7.508541107 -2.481060505 -1.880446076
N -2.617543221 4.533939838 -1.655447125
C -2.165543079 5.912938595 -1.873442292
C -3.123543739 6.773938656 -2.739446640
O -3.596543312 6.333938122 -3.795444489
C -0.792543054 5.909938335 -2.533445358
O -0.417542726 7.242938519 -2.832441330
N -0.160542786 8.271938324 -5.608444214
C 0.863457561 7.470939159 -6.259445190
C 0.253457665 6.250937939 -6.902442932
O -0.846542001 5.867938519 -6.569450378
C 1.990456104 7.099938869 -5.273445129
C 2.792455673 8.296939850 -4.786445618
S 4.143458366 7.862939358 -3.666448593
C 3.243455887 6.898938656 -2.454442978
N 0.959457278 5.669938564 -7.857442856
C 0.497457117 4.471939564 -8.541447639
C 1.250457525 3.292939663 -7.896446228
O 2.456456184 3.374938488 -7.613449097
C 0.782456994 4.584939957 -10.054440498
N 0.523457050 2.220938921 -7.622444153
C 1.072458267 1.044938445 -6.972450256
C 1.517457485 -0.007061202 -8.007445335
O 0.714457154 -0.465061665 -8.842442513
C 0.006457858 0.439939260 -6.043449402
C 0.415457577 -0.918060780 -5.468444824
C -0.063542746 -2.165060520 -5.832443237
C 1.407456875 -1.148060322 -4.453445435
N 0.575457096 -3.143061638 -5.093444824
C 1.485456944 -2.547060490 -4.250450134
C 2.248456001 -0.300060630 -3.704442978
C 2.355456352 -3.119061470 -3.303442001
C 3.125455856 -0.857061923 -2.779447556
C 3.158455849 -2.268061161 -2.572446823
N 2.779456139 -0.414061010 -7.941444397
C 3.209455490 -1.541062355 -8.763440132
C 3.509455681 -2.756062031 -7.905448437
O 4.515459061 -2.764061451 -7.156448364
C 4.410458565 -1.226061583 -9.656445503
C 4.456459045 -2.251060963 -10.772442818
C 4.282458305 0.163938209 -10.257443428
N 2.607456207 -3.751061440 -8.014447212
C 2.653455734 -5.015060902 -7.266448975
C 4.055458546 -5.604061604 -7.261444092
O 4.674458504 -5.751060963 -6.193443298
N 7.157458305 -4.036060810 -5.385444641
C 6.688458443 -3.669063568 -4.021445274
C 6.782458305 -2.164061069 -3.713445663
O 7.402459145 -1.745060444 -2.715444565
C 7.425458908 -4.497061253 -2.925443649
C 6.963459015 -4.161060810 -1.498441815
O 5.774458885 -4.146061420 -1.199446082
N 7.915457726 -3.871062040 -0.618444383
N 6.174458504 -1.343062162 -4.565444946
C 6.307458878 0.092939109 -4.368446350
C 5.185459137 0.897939324 -4.954444885
O 4.458458900 0.416938543 -5.849449158
C 7.688458443 0.618938208 -4.832443237
C 7.925457001 0.495938897 -6.335449219
O 7.058458328 0.106939018 -7.118446350
N 9.123456001 0.859939098 -6.740447998
N 5.021458626 2.097937822 -4.399444580
C 4.148458481 3.111938000 -4.996444702
C 5.092458725 4.133939266 -5.601448059
O 6.166459084 4.400939941 -5.036445618
C 3.319456100 3.860938549 -3.945449352
C 2.113455772 3.168939114 -3.323446274
C 0.904457927 2.930938244 -3.907445908
C 2.005456448 2.690938711 -1.974447370
N 0.060457796 2.305938005 -3.021444321
C 0.713457704 2.156938076 -1.821447968
C 2.890456200 2.641938925 -0.888441443
C 0.272457778 1.589938641 -0.612447679
C 2.447456360 2.084939241 0.308557212
C 1.151457787 1.564939022 0.429551810
N -2.381543159 8.509937286 2.872552872
C -2.362544060 7.036939144 2.847558975
C -3.580544472 6.506938457 3.619554043
O -3.690543175 6.652938366 4.844551086
C -1.039542913 6.431939602 3.374551773
C 0.249457002 6.422938824 2.509553909
C 1.416457653 5.788938046 3.256555557
C 0.092457429 5.752938747 1.153558612
N -4.499540329 5.881938457 2.891557693
C -5.846540451 5.715938091 3.416551113
C -6.350542068 4.268939495 3.345552444
O -5.770542145 3.438939571 2.644556046
C -6.819541931 6.694938183 2.687555313
C -7.113540649 6.320939541 1.227556348
C -8.241540909 5.579938412 0.901552260
C -6.231540680 6.686938763 0.189554021
C -8.517544746 5.228938580 -0.414441943
C -6.464540482 6.316937923 -1.146444678
C -7.616540909 5.593938351 -1.438444257
O -7.891540527 5.228938580 -2.720441818
