195

S 1.325282693 1.587070107 0.050310675
I 0.249036238 1.105163574 1.384778142
C 0.692272723 2.175995111 -0.789383590
P -1.097250223 -2.352509260 -1.423222065
Cl -0.075028226 -1.035025001 0.037493572
B 0.408849865 0.969591558 1.161327958
C -0.051747289 -1.150495768 -0.372428834
Cl -1.372133255 -1.338860154 -0.807514846
F -0.208826572 -0.832257867 -1.704525709
B -0.135062099 -0.849877894 0.227667987
B 2.159198046 0.118014999 1.874273181
O -1.030755162 -2.714501619 -1.690513492
Cl -0.960845172 -2.549352884 0.018036913
Cl -1.291007280 -1.131069541 -0.152823776
F 0.835772216 0.808508933 0.615622520
I -0.543980002 -1.034788013 -1.943038702
Cl 0.421281695 1.975578308 0.838103771
P 0.326096624 1.849087119 -1.398362875
F -1.108511090 1.504320145 0.512243927
I 1.457355857 2.895408154 3.561955690
N 7.005468845 -0.466827273 0.679918766
C 6.594469547 -1.117828131 1.920923352
C 7.636469364 -2.144826651 2.430917978
O 7.722468853 -3.238826036 1.878915906
C 5.279469013 -1.836828470 1.538919568
C 4.825469494 -1.200826406 0.285921216
C 6.034469128 -0.661826849 -0.411077231
N 5.132469654 -4.411827564 6.664917946
C 4.312469006 -3.681827784 5.709916115
C 4.399468899 -4.177828312 4.250916481
O 3.730467558 -3.618827105 3.375917196
C 4.618468761 -2.181826830 5.806916237
O 4.083468914 -1.612827420 7.010918617
N 5.189468861 -5.225828648 3.982917786
C 5.396469593 -5.736828327 2.603922129
C 4.106469631 -5.982826710 1.797922492
O 3.122467756 -6.512829304 2.313921213
C 6.268469334 -7.001827717 2.621919870
C 7.033468723 -7.251827717 1.328920960
C 7.943468571 -8.475827217 1.395922065
C 8.706467628 -8.691826820 0.083917737
N 7.912467480 -8.439827919 -1.162076831
N 4.109468937 -5.592827320 0.528917611
C 2.922467947 -5.739828587 -0.315076649
C 1.861467361 -4.667828083 -0.077077575
O 0.769468188 -4.767828465 -0.637082636
N 2.158467054 -3.663827419 0.764917850
C 1.245469332 -2.515826464 1.005923033
C 0.223468795 -2.668826342 2.141916513
O -1.000532627 -2.464827776 1.940919757
N 0.737468839 -3.008826494 3.333917379
C -0.051530935 -3.324826479 4.533921242
C 0.380468339 -2.572827578 5.764916420
O 1.521468878 -2.128827810 5.876915932
C 0.007469043 -4.825827122 4.851922035
C -0.631530762 -5.650827885 3.774919271
C -2.024530411 -5.778828144 3.714921713
C 0.146469042 -6.291828632 2.796922922
C -2.632533312 -6.530827045 2.713922739
C -0.449531645 -7.040829182 1.789919257
C -1.841531992 -7.149826527 1.754923224
O -2.466532946 -7.878825188 0.756922245
N -0.560531616 -2.428826571 6.692917824
C -0.238531142 -1.987827063 8.055920601
C -0.607530594 -3.149827242 8.981922150
O -1.606531382 -3.864827633 8.744922638
C -0.964531302 -0.677827597 8.426921844
C -2.486533403 -0.701827765 8.265918732
S -3.375533342 0.784172297 8.839923859
C -5.037530422 0.122173749 8.629924774
N -3.952533007 -5.186827183 7.263916969
C -4.992530346 -4.420828342 6.532921791
C -4.339530468 -3.665826321 5.354920387
O -3.281531572 -2.994826555 5.515915871
C -5.748530865 -3.446826220 7.486916542
C -6.499530315 -2.379826784 6.723916054
C -6.720530987 -4.226828098 8.382923126
N -4.946530819 -3.803827286 4.169915199
C -4.449531078 -3.123826265 2.971918344
C -4.526530743 -1.600828290 3.055917978
O -5.531529903 -1.026826620 3.545922995
N -3.454531908 -0.964828491 2.610918283
C -3.399531603 0.483173937 2.377916574
C -3.453532457 0.818172634 0.898920655
O -3.063533068 0.026173139 0.070917264
C -2.114531279 1.067173004 2.949922800
C -2.082531214 1.148172617 4.484917641
C -0.750532269 1.718172312 4.972916603
C -3.241532564 1.990173817 5.003914833
N -3.931532621 2.013172388 0.572916508
C -3.925532103 2.525173903 -0.800076962
C -3.334532976 3.940172434 -0.772077084
O -3.551532030 4.692172527 0.220918715
C -5.356530666 2.543173552 -1.389081836
C -5.940530300 1.150173426 -1.548078418
C -5.895530224 0.501173556 -2.774083853
C -6.514531612 0.464172959 -0.463079244
C -6.424531460 -0.777827919 -2.939077139
C -7.044530392 -0.806827307 -0.610082269
C -6.992530346 -1.431827188 -1.857083917
O -7.474530697 -2.724826097 -2.057081461
N -2.583531618 4.290173054 -1.832082391
C -2.131531477 5.669171810 -2.050077677
C -3.089532137 6.530171871 -2.916082144
O -3.562531710 6.090171337 -3.972079754
C -0.758531809 5.666171551 -2.710080862
O -0.383531600 6.999171734 -3.009076834
N -0.126531631 8.028169632 -5.785079002
C 0.897468805 7.227172375 -6.436079979
C 0.287468821 6.007171154 -7.079077721
O -0.812530756 5.624171734 -6.746085167
C 2.024467230 6.856172085 -5.450079918
C 2.826467276 8.053170204 -4.963080406
S 4.177468777 7.619172573 -3.843084097
C 3.277467489 6.655171871 -2.631078482
N 0.993468523 5.426171780 -8.034078598
C 0.531468272 4.228172779 -8.718082428
C 1.284468651 3.049174070 -8.073081970
O 2.490467787 3.131172895 -7.790083885
C 0.816468239 4.341173172 -10.231075287
N 0.557468295 1.977173328 -7.799078941
C 1.106469393 0.801172435 -7.149085045
C 1.551468611 -0.250827342 -8.184080124
O 0.748468399 -0.708827734 -9.019077301
C 0.040469006 0.196173072 -6.220084190
C 0.449468702 -1.161826849 -5.645079613
C -0.029531598 -2.408826113 -6.009078026
C 1.441468000 -1.391826391 -4.630080223
N 0.609468341 -3.386827230 -5.270079613
C 1.519468069 -2.790826082 -4.427084923
C 2.282467604 -0.543826818 -3.881078482
C 2.389467955 -3.362827063 -3.480077505
C 3.159467459 -1.100827932 -2.956083059
C 3.192467451 -2.511826754 -2.749082327
N 2.813467741 -0.657827139 -8.118080139
C 3.243467093 -1.784828424 -8.940074921
C 3.543467283 -2.999827623 -8.082084656
O 4.549469471 -3.007827044 -7.333083153
C 4.444468975 -1.469827771 -9.833080292
C 4.490469456 -2.494826555 -10.949077606
C 4.316468716 -0.079827920 -10.434078217
N 2.641467810 -3.994827032 -8.191082001
C 2.687467337 -5.258827686 -7.443083763
C 4.089469433 -5.847828388 -7.438078880
O 4.708468914 -5.994827747 -6.370078087
N 7.191468716 -4.279827595 -5.562079430
C 6.722468853 -3.912829161 -4.198080063
C 6.816468716 -2.407826662 -3.890081167
O 7.436469555 -1.988826513 -2.892080069
C 7.459469318 -4.740828037 -3.102079153
C 6.997469425 -4.404827595 -1.675077081
O 5.808469296 -4.389828205 -1.376081347
N 7.949468136 -4.114828587 -0.795079708
N 6.208468914 -1.586828351 -4.742079735
C 6.341469288 -0.150827020 -4.545081139
C 5.219469547 0.654173255 -5.131079674
O 4.492469311 0.173172355 -6.026083946
C 7.722468853 0.375172079 -5.009078026
C 7.959467411 0.252172709 -6.512084007
O 7.092468739 -0.136827111 -7.295081139
N 9.157467842 0.616173029 -6.917082787
N 5.055469036 1.854171991 -4.576079369
C 4.182468891 2.868172407 -5.173079491
C 5.126469135 3.890173197 -5.778082848
O 6.200469494 4.157173157 -5.213080406
C 3.353467703 3.617172956 -4.122084141
C 2.147467375 2.925173521 -3.500081778
C 0.938469172 2.687172651 -4.084080696
C 2.039467573 2.447173119 -2.151082754
N 0.094468951 2.062172413 -3.198079824
C 0.747468948 1.913172245 -1.998083115
C 2.924467802 2.398173332 -1.065076709
C 0.306468934 1.346172571 -0.789083004
C 2.481467962 1.841173410 0.131921843
C 1.185468912 1.321172953 0.252916425
N -2.347531557 8.266168594 2.695917368
C -2.328532457 6.793172359 2.670923471
C -3.546532869 6.263171673 3.442918539
O -3.656531572 6.409171581 4.667916298
C -1.005531788 6.188172817 3.197916269
C 0.283468157 6.179172039 2.332918406
C 1.450468779 5.545171261 3.079920053
C 0.126468584 5.509171963 0.976923406
N -4.465529919 5.638171673 2.714922190
C -5.812530041 5.472171307 3.239915609
C -6.316531658 4.025172710 3.168916941
O -5.736531734 3.195173979 2.467920542
C -6.785531521 6.451171398 2.510919809
C -7.079530239 6.077172756 1.050921202
C -8.207529068 5.336171627 0.724916935
C -6.197530270 6.443171978 0.012918707
C -8.483532906 4.985171795 -0.591077328
C -6.430530071 6.073171139 -1.323079944
C -7.582530499 5.350171566 -1.615079522
O -7.857530117 4.985171795 -2.897077322
