195

Cl 2.145853519 1.657624245 0.034078784
B 2.828128099 0.866937876 1.034972191
S 0.659947455 2.139762402 1.420655847
P -2.555164576 -1.258680224 -2.276625395
Cl -1.043899298 -1.450460792 -0.872314870
B 0.084050439 2.570418596 0.078733742
C -0.173386052 -1.454323769 -0.795401037
F -2.894712210 -2.480314732 -1.490276098
I 0.428070933 -0.601357996 -2.698595285
F -0.638543904 -0.264474899 0.554895163
F 2.736043930 1.463237762 1.525865078
B -1.751505494 -2.741140366 -0.387791395
F -2.251301527 -2.634395599 0.040462505
B -1.509667873 -1.603364825 -0.456964046
N 0.735922158 1.162965059 0.863991737
F -0.503617883 -2.918028116 -2.628030539
N 0.744220734 2.323278904 2.422914505
P 2.053150654 2.131939888 -0.550065935
I -1.038708091 0.939694107 0.393628150
Cl 1.945119381 2.150681973 3.785867929
N 6.970289230 -0.528409660 0.692336798
C 6.559289932 -1.179410577 1.933340669
C 7.601289749 -2.206408978 2.443335295
O 7.687289238 -3.300407887 1.891333699
C 5.244289398 -1.898410916 1.551337361
C 4.790289879 -1.262408853 0.298339278
C 5.999289513 -0.723409235 -0.398659229
N 5.097290039 -4.473410606 6.677334309
C 4.277289391 -3.743409634 5.722332478
C 4.364289284 -4.239410400 4.263332844
O 3.695287704 -3.680408955 3.388334513
C 4.583289146 -2.243409157 5.819332600
O 4.048288345 -1.674409747 7.023334980
N 5.154289246 -5.287411690 3.995334387
C 5.361289978 -5.798411369 2.616339445
C 4.071289539 -6.044409752 1.810340285
O 3.087287903 -6.574412346 2.326338530
C 6.233289719 -7.063410759 2.634337187
C 6.998289108 -7.313410759 1.341338754
C 7.908290863 -8.537406921 1.408339858
C 8.671286583 -8.753406525 0.096335746
N 7.877287865 -8.501407623 -1.149658799
N 4.074289322 -5.654410362 0.541335642
C 2.887288094 -5.801411629 -0.302658617
C 1.826288223 -4.729411125 -0.064659618
O 0.734288633 -4.829411507 -0.624664605
N 2.123287201 -3.725409031 0.777336061
C 1.210290194 -2.577408314 1.018340707
C 0.188289404 -2.730408192 2.154333830
O -1.035712123 -2.526409626 1.953337312
N 0.702289283 -3.070408344 3.346334696
C -0.086710334 -3.386408329 4.546337605
C 0.345289081 -2.634409428 5.777332783
O 1.486289740 -2.190410137 5.889332294
C -0.027710356 -4.887410164 4.864338398
C -0.666710317 -5.712410927 3.787336111
C -2.059710503 -5.840411186 3.727339029
C 0.111289576 -6.353411674 2.809340239
C -2.667713165 -6.592410088 2.726340055
C -0.484710842 -7.102412224 1.802337050
C -1.876711130 -7.211409569 1.767340779
O -2.501712799 -7.940407753 0.769340396
N -0.595710933 -2.490408421 6.705334187
C -0.273710549 -2.049409628 8.068341255
C -0.642710149 -3.211409092 8.994343758
O -1.641710520 -3.926409245 8.757344246
C -0.999710858 -0.739409983 8.439343452
C -2.521713257 -0.763410151 8.278340340
S -3.410713196 0.722590029 8.852345467
C -5.072710037 0.060591269 8.642346382
N -3.987712145 -5.248410225 7.276333332
C -5.027709961 -4.482411385 6.545338154
C -4.374710083 -3.727407932 5.367336750
O -3.316711426 -3.056408405 5.528332233
C -5.783710480 -3.508408070 7.499332905
C -6.534709930 -2.441408634 6.736332417
C -6.755710602 -4.288412094 8.395344734
N -4.981710434 -3.865408897 4.182331562
C -4.484710693 -3.185408115 2.984335661
C -4.561710358 -1.662410617 3.068335295
O -5.566709518 -1.088409305 3.558340311
N -3.489711761 -1.026411057 2.623335600
C -3.434711456 0.421591431 2.390333891
C -3.488712311 0.756590188 0.911338270
O -3.098712921 -0.035409305 0.083335228
C -2.149711132 1.005590558 2.962340117
C -2.117710829 1.086590171 4.497334003
C -0.785711825 1.656589866 4.985332966
C -3.276712418 1.928591728 5.016331196
N -3.966712713 1.951590300 0.585334539
C -3.960711718 2.463592052 -0.787658930
C -3.369712830 3.878590107 -0.759659111
O -3.586711884 4.630589485 0.233336732
C -5.391710281 2.481591702 -1.376664042
C -5.975709915 1.088590980 -1.535660625
C -5.930709839 0.439591020 -2.761666536
C -6.549711227 0.402590573 -0.450661182
C -6.459711075 -0.839410365 -2.926659822
C -7.079710007 -0.868409693 -0.597664237
C -7.027709961 -1.493409514 -1.844666123
O -7.509710312 -2.786407948 -2.044663668
N -2.618711472 4.228590012 -1.819664598
C -2.166711330 5.607588768 -2.037659883
C -3.124711990 6.468588829 -2.903664827
O -3.597711563 6.028588295 -3.959662676
C -0.793711364 5.604588509 -2.697663546
O -0.418710858 6.937588692 -2.996659517
N -0.161710978 7.966588974 -5.772662640
C 0.862289250 7.165589333 -6.423663616
C 0.252289504 5.945588112 -7.066661358
O -0.847710311 5.562588692 -6.733668804
C 1.989287853 6.794589043 -5.437663555
C 2.791287422 7.991589546 -4.950664043
S 4.142289162 7.557589531 -3.830666780
C 3.242287636 6.593588829 -2.618661165
N 0.958289087 5.364588737 -8.021659851
C 0.496288836 4.166589737 -8.705660820
C 1.249289513 2.987592220 -8.060662270
O 2.455287933 3.069591045 -7.777667522
C 0.781288683 4.279590607 -10.218653679
N 0.522288620 1.915590882 -7.786662579
C 1.071290255 0.739590108 -7.136668682
C 1.516289473 -0.312409729 -8.171662331
O 0.713288844 -0.770410120 -9.006655693
C 0.005289622 0.134590551 -6.207667828
C 0.414289415 -1.223409295 -5.632663250
C -0.064710982 -2.470407963 -5.996661663
C 1.406288862 -1.453408837 -4.617663860
N 0.574288785 -3.448409081 -5.257663250
C 1.484288931 -2.852407932 -4.414668560
C 2.247287750 -0.605409205 -3.868661165
C 2.354288101 -3.424408913 -3.467660189
C 3.124287605 -1.162410617 -2.943665743
C 3.157287598 -2.573408604 -2.736665010
N 2.778287888 -0.719409525 -8.105660439
C 3.208287239 -1.846410871 -8.927653313
C 3.508287430 -3.061409473 -8.069664955
O 4.514289856 -3.069408894 -7.320666790
C 4.409289360 -1.531410098 -9.820658684
C 4.455289841 -2.556408405 -10.936655998
C 4.281289101 -0.141410351 -10.421656609
N 2.606287956 -4.056408882 -8.178662300
C 2.652287483 -5.320410728 -7.430667400
C 4.054288864 -5.909411430 -7.425662518
O 4.673289299 -6.056410789 -6.357661724
N 7.156289101 -4.341410637 -5.549663067
C 6.687289238 -3.974410772 -4.185663700
C 6.781289101 -2.469408512 -3.877663851
O 7.401289940 -2.050408840 -2.879662752
C 7.424289703 -4.802411079 -3.089661837
C 6.962289810 -4.466410637 -1.662659287
O 5.773289680 -4.451411247 -1.363663554
N 7.914290428 -4.176410675 -0.782661676
N 6.173289299 -1.648410678 -4.729663372
C 6.306289673 -0.212409481 -4.532664776
C 5.184289932 0.592590868 -5.118663311
O 4.457289696 0.111589871 -6.013667583
C 7.687289238 0.313589722 -4.996661663
C 7.924289703 0.190590277 -6.499667645
O 7.057289124 -0.198409572 -7.282664776
N 9.122286797 0.554590642 -6.904666424
N 5.020289421 1.792589784 -4.563663006
C 4.147289276 2.806590557 -5.160663128
C 5.091289520 3.828590393 -5.765666485
O 6.165289879 4.095590591 -5.200664043
C 3.318287849 3.555591106 -4.109668255
C 2.112287521 2.863591671 -3.487664461
C 0.903289735 2.625590801 -4.071664333
C 2.004288197 2.385591507 -2.138665199
N 0.059289575 2.000590563 -3.185662508
C 0.712289393 1.851590276 -1.985665441
C 2.889287949 2.336591721 -1.052658677
C 0.271289617 1.284590125 -0.776665032
C 2.446288109 1.779591203 0.144339904
C 1.150289774 1.259590507 0.265334517
N -2.382711411 8.204587936 2.708334684
C -2.363712311 6.731589317 2.683340788
C -3.581712723 6.201588631 3.455335855
O -3.691711426 6.347588539 4.680332661
C -1.040710926 6.126589775 3.210333586
C 0.248288840 6.117588997 2.345335722
C 1.415289640 5.483588219 3.092337370
C 0.091289178 5.447588921 0.989341140
N -4.500709534 5.576588631 2.727339506
C -5.847709656 5.410588264 3.252332926
C -6.351711273 3.963588953 3.181334257
O -5.771711349 3.133592129 2.480337858
C -6.820711136 6.389588356 2.523337126
C -7.114709854 6.015589714 1.063338876
C -8.242711067 5.274588585 0.737334847
C -6.232709885 6.381588936 0.025336627
C -8.518713951 4.923588753 -0.578659236
C -6.465709686 6.011588097 -1.310662150
C -7.617710114 5.288588524 -1.602661729
O -7.892709732 4.923588753 -2.884660006
