195

P 3.046756029 1.750442624 0.158375815
B 2.645987034 2.122887850 1.262772083
S 1.663262844 1.941863894 1.490806103
C -2.044199944 -1.755814195 -2.950326443
N -1.433467865 -2.655881882 -1.620552778
B 0.330117106 2.606995583 -0.030979484
S -1.772969961 -1.306692004 -1.141593456
F -1.931306362 -2.799355984 -1.316812277
Br 0.044176776 -0.335656404 -2.532507420
Br 0.241898686 0.072943375 -0.143439040
F 2.320062160 1.862831116 1.700104237
B -2.916207314 -2.827286005 0.063509554
O -2.914030790 -2.581491470 0.002441828
Br -2.225036621 -1.894819498 0.550123692
I 0.906242073 0.991575599 1.407159567
F -0.475866586 -2.739783525 -2.700363159
N 0.813288867 2.563490152 3.348872185
I 2.734348059 1.608268619 -0.554415226
I -1.325235128 1.291434765 -0.731299043
S 2.292180538 2.084047079 3.738124371
N 7.008550167 -0.427189291 0.810407579
C 6.597550869 -1.078190327 2.051412106
C 7.639550686 -2.105189085 2.561406612
O 7.725550175 -3.199187994 2.009404659
C 5.282550335 -1.797190666 1.669408321
C 4.828550816 -1.161188602 0.416409940
C 6.037550449 -0.622188687 -0.280588567
N 5.135550976 -4.372189999 6.795403481
C 4.315550327 -3.642189741 5.840401649
C 4.402550220 -4.138189793 4.381402016
O 3.733546019 -3.579189062 3.506405830
C 4.621550083 -2.142189264 5.937401772
O 4.086549282 -1.573189497 7.141404152
N 5.192550182 -5.186191082 4.113404274
C 5.399550915 -5.697190762 2.734410763
C 4.109549999 -5.943189144 1.928411245
O 3.125546217 -6.473191738 2.444409847
C 6.271550655 -6.962190151 2.752408504
C 7.036550045 -7.212190151 1.459409714
C 7.946551800 -8.436187744 1.526410818
C 8.709544182 -8.652187347 0.214406505
N 7.915548801 -8.400188446 -1.031587839
N 4.112550259 -5.553189754 0.659406424
C 2.925546408 -5.700191021 -0.184587881
C 1.864547253 -4.628190517 0.053411122
O 0.772547543 -4.728190899 -0.506593764
N 2.161545515 -3.624189138 0.895406842
C 1.248549223 -2.476188421 1.136411667
C 0.226548418 -2.629188299 2.272405148
O -0.997453511 -2.425189734 2.071409225
N 0.740548193 -2.969188452 3.464406013
C -0.048451334 -3.285188437 4.664406776
C 0.383548051 -2.533189535 5.895401955
O 1.524548769 -2.089190245 6.007401466
C 0.010548641 -4.786189556 4.982407570
C -0.628451407 -5.611190319 3.905407429
C -2.021451712 -5.739190578 3.845410347
C 0.149548605 -6.252191067 2.927411556
C -2.629454851 -6.491189480 2.844411373
C -0.446451873 -7.001191616 1.920408010
C -1.838452101 -7.110188961 1.885411739
O -2.463454485 -7.839187145 0.887411177
N -0.557452023 -2.389188528 6.823403358
C -0.235451490 -1.948189259 8.186411858
C -0.604451239 -3.110189199 9.112414360
O -1.603451490 -3.825189352 8.875414848
C -0.961451948 -0.638189435 8.557414055
C -2.483454943 -0.662189603 8.396410942
S -3.372454882 0.823810577 8.970416069
C -5.034449100 0.161811680 8.760416985
N -3.949453831 -5.147189617 7.394402504
C -4.989449024 -4.381190777 6.663407326
C -4.336449146 -3.626188040 5.485405922
O -3.278453112 -2.955188513 5.646401405
C -5.745449543 -3.407188177 7.617402077
C -6.496448994 -2.340188742 6.854401588
C -6.717449665 -4.187191486 8.513415337
N -4.943449497 -3.764189005 4.300400734
C -4.446449757 -3.084188223 3.102406979
C -4.523449421 -1.561190367 3.186406612
O -5.528448582 -0.987188816 3.676411629
N -3.451453447 -0.925190449 2.741406918
C -3.396453142 0.522812009 2.508405209
C -3.450453997 0.857810736 1.029409051
O -3.060454607 0.065811090 0.201405987
C -2.111452818 1.106810808 3.080411434
C -2.079452515 1.187810421 4.615403175
C -0.747452915 1.757810116 5.103402138
C -3.238454103 2.029811144 5.134400368
N -3.928454399 2.052810431 0.703405321
C -3.922453403 2.564811945 -0.669588149
C -3.331454515 3.979809999 -0.641588330
O -3.548453569 4.731810093 0.351407379
C -5.353449345 2.582811594 -1.258593082
C -5.937448978 1.189811230 -1.417589664
C -5.892448902 0.540811539 -2.643595219
C -6.511450291 0.503811002 -0.332590520
C -6.421450138 -0.738189816 -2.808588505
C -7.041449070 -0.767189145 -0.479593664
C -6.989449024 -1.392189264 -1.726595163
O -7.471449375 -2.685188055 -1.926593304
N -2.580453157 4.329810619 -1.701593637
C -2.128453016 5.708809376 -1.919589281
C -3.086453676 6.569809437 -2.785593510
O -3.559453249 6.129808903 -3.841591358
C -0.755452454 5.705809116 -2.579592228
O -0.380451888 7.038809299 -2.878588200
N -0.123451948 8.067809105 -5.654593468
C 0.900548160 7.266809940 -6.305594444
C 0.290548474 6.046808720 -6.948592186
O -0.809451401 5.663809299 -6.615599632
C 2.027546167 6.895809650 -5.319594383
C 2.829545736 8.092808723 -4.832594872
S 4.180550098 7.658810139 -3.712595463
C 3.280545950 6.694809437 -2.500589848
N 0.996548414 5.465809345 -7.903589249
C 0.534547746 4.267810345 -8.587590218
C 1.287548542 3.088812113 -7.942591190
O 2.493546247 3.170810938 -7.659598351
C 0.819547594 4.380811214 -10.100583076
N 0.560547531 2.016810656 -7.668593407
C 1.109549284 0.840810657 -7.018599510
C 1.554548502 -0.211189270 -8.053591728
O 0.751547754 -0.669189572 -8.888585091
C 0.043548614 0.235810965 -6.089598656
C 0.452548355 -1.122189045 -5.514594078
C -0.026451986 -2.369188070 -5.878592491
C 1.444547892 -1.352188587 -4.499594688
N 0.612547696 -3.347189188 -5.139594078
C 1.522547960 -2.751188040 -4.296599388
C 2.285546064 -0.504188657 -3.750589848
C 2.392546415 -3.323189020 -3.349588871
C 3.162545919 -1.061190367 -2.825594425
C 3.195545912 -2.472188711 -2.618593693
N 2.816546202 -0.618188977 -7.987589836
C 3.246545553 -1.745190620 -8.809582710
C 3.546545744 -2.960189581 -7.951594830
O 4.552550793 -2.968189001 -7.202597618
C 4.447550297 -1.430189848 -9.702588081
C 4.493550777 -2.455188513 -10.818585396
C 4.319550037 -0.040189959 -10.303586006
N 2.644546270 -3.955189228 -8.060591698
C 2.690545797 -5.219190121 -7.312598228
C 4.092549801 -5.808190823 -7.307593346
O 4.711550236 -5.955190182 -6.239592552
N 7.194550037 -4.240190029 -5.431593895
C 6.725550175 -3.873190641 -4.067594528
C 6.819550037 -2.368188620 -3.759592533
O 7.439550877 -1.949188709 -2.761591434
C 7.462550640 -4.701190472 -2.971590519
C 7.000550747 -4.365190029 -1.544588327
O 5.811550617 -4.350190639 -1.245592594
N 7.952550411 -4.075190067 -0.664590895
N 6.211550236 -1.547190428 -4.611594200
C 6.344550610 -0.111189052 -4.414595604
C 5.222550869 0.693811417 -5.000594139
O 4.495550632 0.212810293 -5.895598412
C 7.725550175 0.414810091 -4.878592491
C 7.962548256 0.291810602 -6.381598473
O 7.095550060 -0.097189143 -7.164595604
N 9.160544395 0.655811191 -6.786597252
N 5.058550358 1.893810034 -4.445593834
C 4.185550213 2.907810450 -5.042593956
C 5.129550457 3.929810286 -5.647597313
O 6.203550816 4.196811199 -5.082594872
C 3.356546164 3.656810999 -3.991598606
C 2.150545835 2.964811563 -3.369593143
C 0.941548645 2.726810694 -3.953593731
C 2.042546511 2.486811399 -2.020593643
N 0.097548619 2.101810694 -3.067591190
C 0.750548303 1.952810526 -1.867594481
C 2.927546263 2.437811613 -0.934587777
C 0.309548587 1.385810375 -0.658594251
C 2.484546423 1.880811453 0.262410551
C 1.188548803 1.360810757 0.383405179
N -2.344453096 8.305807114 2.826406002
C -2.325453997 6.832809925 2.801412106
C -3.543454409 6.302809238 3.573407173
O -3.653453112 6.448809147 4.798401833
C -1.002452374 6.227810383 3.328404903
C 0.286547780 6.218809605 2.463407040
C 1.453548670 5.584808826 3.210408688
C 0.129548192 5.548809528 1.107412100
N -4.462448597 5.677809238 2.845410824
C -5.809448719 5.511808872 3.370404243
C -6.313450336 4.064809799 3.299405575
O -5.733450413 3.234812021 2.598409176
C -6.782450199 6.490808964 2.641408443
C -7.076448917 6.116810322 1.181409836
C -8.204453468 5.375809193 0.855405629
C -6.194448948 6.482809544 0.143407360
C -8.480456352 5.024809361 -0.460588604
C -6.427448750 6.112808704 -1.192591190
C -7.579449177 5.389809132 -1.484590769
O -7.854448795 5.024809361 -2.766588688
