195

I 3.225672960 1.763055086 0.137637541
B 2.382405043 1.869105577 1.322726727
S 1.807239652 2.119849920 1.277257323
C -2.026157856 -1.486574173 -3.098897219
N -1.321445942 -2.288679123 -1.260034323
B 0.278798014 2.680414200 -0.390013367
S -1.955704093 -1.725681424 -0.830970943
F -1.939381957 -2.605953455 -0.968843818
Br 0.214821190 -0.337359160 -2.436515331
Br 0.413150936 0.262361139 -0.125414684
F 2.508963585 1.512113571 1.681365848
F -2.788413525 -2.863605261 -0.031946246
O -2.785988569 -2.651477814 -0.047841284
Br -2.336371899 -1.616411805 0.300242484
I 0.863738120 0.763199508 1.181388855
F -0.667703271 -2.704768419 -2.694308519
N 0.741925657 2.560251474 3.145014524
I 2.755568027 1.618303180 -0.364879280
I -1.622091174 1.437704921 -0.173770651
I 2.250974178 1.694151759 3.377803326
N 7.048983097 -0.426055402 0.811315894
C 6.637983799 -1.077056289 2.052320004
C 7.679983616 -2.104054928 2.562314510
O 7.765983105 -3.198053837 2.010312557
C 5.322983265 -1.796056628 1.670316577
C 4.868983746 -1.160054564 0.417318195
C 6.077983379 -0.621054947 -0.279680312
N 5.175983906 -4.371056557 6.796311855
C 4.355983257 -3.641055584 5.841310024
C 4.442983150 -4.137056351 4.382310390
O 3.773979425 -3.578054905 3.507313728
C 4.661983013 -2.141055107 5.938310146
O 4.126982212 -1.572055459 7.142312527
N 5.232983112 -5.185057640 4.114312649
C 5.439983845 -5.696057320 2.735318661
C 4.149982929 -5.942055702 1.929319501
O 3.165979624 -6.472058296 2.445317745
C 6.311983585 -6.961056709 2.753316402
C 7.076982975 -7.211056709 1.460317969
C 7.986984730 -8.435053825 1.527319074
C 8.749979019 -8.651053429 0.215314731
N 7.955981731 -8.399054527 -1.030679584
N 4.152983189 -5.552056313 0.660314739
C 2.965979815 -5.699057579 -0.183679655
C 1.904980183 -4.627057076 0.054319371
O 0.812980711 -4.727057457 -0.505685508
N 2.201978922 -3.623054981 0.896315157
C 1.288982153 -2.475054264 1.137319922
C 0.266981512 -2.628054142 2.273313046
O -0.957020223 -2.424055576 2.072317123
N 0.780981362 -2.968054295 3.465313911
C -0.008018244 -3.284054279 4.665315151
C 0.423981130 -2.532055378 5.896310329
O 1.564981699 -2.088056087 6.008309841
C 0.050981734 -4.785056114 4.983315945
C -0.588018239 -5.610056877 3.906315327
C -1.981018543 -5.738057137 3.846318245
C 0.189981669 -6.251057625 2.928319454
C -2.589021444 -6.490056038 2.845319271
C -0.406018794 -7.000058174 1.921316266
C -1.798019171 -7.109055519 1.886319995
O -2.423021078 -7.838053703 0.888319492
N -0.517018855 -2.388054371 6.824311733
C -0.195018426 -1.947055221 8.187319756
C -0.564018071 -3.109055042 9.113322258
O -1.563018560 -3.824055195 8.876322746
C -0.921018779 -0.637055695 8.558321953
C -2.443021536 -0.661055863 8.397318840
S -3.332021475 0.824944317 8.971323967
C -4.994016171 0.162945569 8.761324883
N -3.909020424 -5.146056175 7.395310879
C -4.949016094 -4.380057335 6.664315701
C -4.296016216 -3.625053883 5.486314297
O -3.238019705 -2.954054356 5.647309780
C -5.705016613 -3.406054020 7.618310452
C -6.456016064 -2.339054585 6.855309963
C -6.677016735 -4.186058044 8.514323235
N -4.903016567 -3.763054848 4.301309109
C -4.406016827 -3.083054066 3.103314877
C -4.483016491 -1.560056329 3.187314510
O -5.488015652 -0.986055076 3.677319527
N -3.411020041 -0.924056709 2.742314816
C -3.356019735 0.523945749 2.509313107
C -3.410020590 0.858944476 1.030317187
O -3.020021200 0.066944972 0.202314213
C -2.071019411 1.107944846 3.081319332
C -2.039019108 1.188944459 4.616311550
C -0.707019746 1.758944154 5.104310513
C -3.198020697 2.030945301 5.135308743
N -3.888020992 2.053944588 0.704313636
C -3.882019997 2.565946102 -0.668679833
C -3.291021109 3.980944157 -0.640680015
O -3.508020163 4.732943535 0.352315634
C -5.313016415 2.583945751 -1.257684827
C -5.897016048 1.190945268 -1.416681409
C -5.852015972 0.541945279 -2.642687321
C -6.471017361 0.504944861 -0.331682265
C -6.381017208 -0.737056077 -2.807680607
C -7.001016140 -0.766055405 -0.478685409
C -6.949016094 -1.391055226 -1.725686908
O -7.431016445 -2.684053898 -1.925685048
N -2.540019751 4.330944061 -1.700685382
C -2.088019609 5.709942818 -1.918681026
C -3.046020269 6.570942879 -2.784685612
O -3.519019842 6.130942345 -3.840683460
C -0.715019286 5.706942558 -2.578684330
O -0.340018809 7.039942741 -2.877680302
N -0.083018862 8.068943024 -5.653685093
C 0.940981328 7.267943382 -6.304686069
C 0.330981553 6.047942162 -6.947683811
O -0.769018233 5.664942741 -6.614691257
C 2.067979574 6.896943092 -5.318686008
C 2.869979143 8.093942642 -4.831686497
S 4.220983028 7.659943581 -3.711687565
C 3.320979357 6.695942879 -2.499681950
N 1.036981344 5.466942787 -7.902680874
C 0.574980915 4.268943787 -8.586682320
C 1.327981472 3.089946270 -7.941682816
O 2.533979654 3.171945095 -7.658689976
C 0.859980762 4.381944656 -10.099675179
N 0.600980699 2.017944813 -7.667685032
C 1.149982214 0.841944396 -7.017691135
C 1.594981432 -0.210055381 -8.052683830
O 0.791980922 -0.668055832 -8.887677193
C 0.083981700 0.236944854 -6.088690281
C 0.492981434 -1.121055007 -5.513685703
C 0.013981102 -2.368053913 -5.877684116
C 1.484980822 -1.351054549 -4.498686314
N 0.652980864 -3.346055031 -5.138685703
C 1.562980890 -2.750053883 -4.295691013
C 2.325979471 -0.503054857 -3.749681950
C 2.432979822 -3.322054863 -3.348680973
C 3.202979326 -1.060056329 -2.824686527
C 3.235979319 -2.471054554 -2.617685795
N 2.856979609 -0.617055237 -7.986681461
C 3.286978960 -1.744056582 -8.808674812
C 3.586979151 -2.959055424 -7.950686455
O 4.592983723 -2.967054844 -7.201689243
C 4.487983227 -1.429055810 -9.701680183
C 4.533983707 -2.454054356 -10.817677498
C 4.359982967 -0.039056085 -10.302678108
N 2.684979677 -3.954055071 -8.059683800
C 2.730979204 -5.218056679 -7.311689854
C 4.132982731 -5.807057381 -7.306684971
O 4.751983166 -5.954056740 -6.238684177
N 7.234982967 -4.239056587 -5.430685520
C 6.765983105 -3.872056484 -4.066686153
C 6.859982967 -2.367054462 -3.758684635
O 7.479983807 -1.948054671 -2.760683537
C 7.502983570 -4.700057030 -2.970682621
C 7.040983677 -4.364056587 -1.543680072
O 5.851983547 -4.349057198 -1.244684339
N 7.992983341 -4.074056625 -0.663682580
N 6.251983166 -1.546056390 -4.610685825
C 6.384983540 -0.110055178 -4.413687229
C 5.262983799 0.694945157 -4.999685764
O 4.535983562 0.213944182 -5.894690037
C 7.765983105 0.415943980 -4.877684116
C 8.002981186 0.292944491 -6.380690098
O 7.135982990 -0.096055269 -7.163687229
N 9.200979233 0.656944931 -6.785688877
N 5.098983288 1.894944072 -4.444685459
C 4.225983143 2.908944607 -5.041685581
C 5.169983387 3.930944443 -5.646688938
O 6.243983746 4.197944641 -5.081686497
C 3.396979570 3.657945156 -3.990690708
C 2.190979242 2.965945721 -3.368685246
C 0.981981814 2.727944851 -3.952685833
C 2.082979918 2.487945557 -2.019685745
N 0.137981698 2.102944851 -3.066683292
C 0.790981472 1.953944564 -1.866686225
C 2.967979670 2.438945770 -0.933679461
C 0.349981666 1.386944413 -0.657685935
C 2.524979830 1.881945491 0.263318807
C 1.228981733 1.361944795 0.384313434
N -2.304019690 8.306941032 2.827313900
C -2.285020590 6.833943367 2.802320004
C -3.503021002 6.303942680 3.574315071
O -3.613019705 6.449942589 4.799310207
C -0.962019145 6.228943825 3.329312801
C 0.326980859 6.219943047 2.464314938
C 1.493981600 5.585942268 3.211316586
C 0.169981256 5.549942970 1.108320355
N -4.422015667 5.678942680 2.846318722
C -5.769015789 5.512942314 3.371312141
C -6.273017406 4.065943241 3.300313473
O -5.693017483 3.235946178 2.599317074
C -6.742017269 6.491942406 2.642316341
C -7.036015987 6.117943764 1.182318091
C -8.164018631 5.376942635 0.856313944
C -6.154016018 6.483942986 0.144315600
C -8.440021515 5.025942802 -0.459680349
C -6.387015820 6.113942146 -1.191682935
C -7.539016247 5.390942574 -1.483682513
O -7.814015865 5.025942802 -2.765680790
