195

O 2.162742376 1.354475856 -0.792285144
I -0.376242787 -1.218357682 -0.601891458
N 1.122290611 -0.159019038 -0.688547134
P -1.044302821 -1.817350149 -1.128771424
I -1.189250946 -0.328339130 0.010893479
Cl -0.170527935 0.335615039 1.459930897
I -1.145437121 -0.564121246 -0.572374880
B 0.467932016 -0.303344101 0.393578291
Cl -1.468157649 0.646393836 -0.851384401
S 0.461742252 0.425086230 -0.015550420
N 0.369682401 0.485257268 1.743144989
B 0.636515617 0.008063890 -1.112411141
Br -1.714797974 -0.302341491 -1.118706703
Cl -1.451754808 -0.276426405 -0.150193661
F 0.348794490 -0.265781373 -0.576592803
Cl 0.990902603 -1.216630697 -0.670828342
F 0.355650991 -0.039451726 1.568768382
C -0.572616875 1.794270158 -0.648585737
S 0.177026093 -0.007068098 0.782410443
Br 2.039809465 1.449068904 2.969396114
N 7.056341171 -0.914626241 0.795386434
C 6.645341873 -1.565627337 2.036391258
C 7.687341690 -2.592625141 2.546386003
O 7.773341179 -3.686624527 1.994383812
C 5.330341339 -2.284627199 1.654387474
C 4.876341820 -1.648625612 0.401389062
C 6.085341454 -1.109626055 -0.295609415
N 5.183341980 -4.859626770 6.780384541
C 4.363341331 -4.129625320 5.825382710
C 4.450341225 -4.625627518 4.366383076
O 3.781340837 -4.066625118 3.491385221
C 4.669341087 -2.629625320 5.922382832
O 4.134340763 -2.060626268 7.126385212
N 5.240341187 -5.673627853 4.098385811
C 5.447341919 -6.184627533 2.719390154
C 4.157341480 -6.430625916 1.913390398
O 3.173341036 -6.960628510 2.429389238
C 6.319341660 -7.449626923 2.737387896
C 7.084341049 -7.699626923 1.444388866
C 7.994341850 -8.923626900 1.511390090
C 8.757340431 -9.139626503 0.199385554
N 7.963340759 -8.887627602 -1.046608925
N 4.160340786 -6.040626526 0.644385457
C 2.973341227 -6.187627792 -0.199608803
C 1.912340283 -5.115627289 0.038390249
O 0.820340812 -5.215627670 -0.521614969
N 2.209340572 -4.111625195 0.880385518
C 1.296341538 -2.963624954 1.121390462
C 0.274341255 -3.116624832 2.257384539
O -0.949660003 -2.912626266 2.056387901
N 0.788341224 -3.456624985 3.449385405
C -0.000658404 -3.772624969 4.649387836
C 0.431340843 -3.020626068 5.880383015
O 1.572341084 -2.576626301 5.992382526
C 0.058341630 -5.273626328 4.967388630
C -0.580658197 -6.098627090 3.890387297
C -1.973658204 -6.226627350 3.830389738
C 0.197341561 -6.739627838 2.912390947
C -2.581660032 -6.978626251 2.829390764
C -0.398659140 -7.488628387 1.905387163
C -1.790659785 -7.597625732 1.870391130
O -2.415659666 -8.326626778 0.872389913
N -0.509659111 -2.876625061 6.808384418
C -0.187658578 -2.435625315 8.171387672
C -0.556658030 -3.597625732 9.097390175
O -1.555659175 -4.312625408 8.860390663
C -0.913658679 -1.125626802 8.542389870
C -2.435660124 -1.149626970 8.381386757
S -3.324660063 0.336373150 8.955391884
C -4.986658096 -0.325625449 8.745392799
N -3.901659727 -5.634626389 7.379383564
C -4.941658020 -4.868627548 6.648388386
C -4.288658142 -4.113624096 5.470386982
O -3.230658293 -3.442625046 5.631382465
C -5.697658539 -3.894624710 7.602383137
C -6.448657990 -2.827625275 6.839382648
C -6.669658661 -4.674627304 8.498391151
N -4.895658493 -4.251625061 4.285381794
C -4.398658752 -3.571624756 3.087386370
C -4.475658417 -2.048627138 3.171386003
O -5.480657578 -1.474625826 3.661391020
N -3.403658628 -1.412627697 2.726386309
C -3.348658323 0.035374753 2.493384600
C -3.402659178 0.370373547 1.014388204
O -3.012659788 -0.421626121 0.186385050
C -2.063658476 0.619374037 3.065390825
C -2.031658888 0.700373530 4.600384235
C -0.699659765 1.270373106 5.088383198
C -3.190659285 1.542374611 5.119381428
N -3.880659342 1.565373182 0.688384175
C -3.874658823 2.077375412 -0.684609294
C -3.283659697 3.492373943 -0.656609416
O -3.500658751 4.244373322 0.336386621
C -5.305658340 2.095375061 -1.273613811
C -5.889657974 0.702374339 -1.432610393
C -5.844657898 0.053374402 -2.658615828
C -6.463659286 0.016373746 -0.347611427
C -6.373659134 -1.225627184 -2.823609114
C -6.993658066 -1.254626513 -0.494614571
C -6.941658020 -1.879626513 -1.741616011
O -7.423658371 -3.172624588 -1.941613317
N -2.532658339 3.842372894 -1.716614485
C -2.080658674 5.221372604 -1.934609652
C -3.038658857 6.082372665 -2.800614119
O -3.511658430 5.642372131 -3.856613398
C -0.707659304 5.218372345 -2.594612837
O -0.332659066 6.551372528 -2.893608809
N -0.075659089 7.580370903 -5.669612408
C 0.948341131 6.779373169 -6.320613384
C 0.338341385 5.559371948 -6.963611126
O -0.761658132 5.176372528 -6.630618572
C 2.075340748 6.408372879 -5.334613323
C 2.877340555 7.605371475 -4.847613811
S 4.228340626 7.171373367 -3.727616072
C 3.328340769 6.207372665 -2.515610456
N 1.044340730 4.978372574 -7.918611526
C 0.582340896 3.780372620 -8.602614403
C 1.335340858 2.601375580 -7.957613468
O 2.541341066 2.683374405 -7.674617290
C 0.867340744 3.893373251 -10.115607262
N 0.608340919 1.529374123 -7.683612347
C 1.157341599 0.353373349 -7.033618450
C 1.602340817 -0.698626399 -8.068612099
O 0.799340904 -1.156626940 -8.903609276
C 0.091341622 -0.251626045 -6.104617596
C 0.500341177 -1.609626055 -5.529613018
C 0.021340959 -2.856624603 -5.893611431
C 1.492340207 -1.839625597 -4.514613628
N 0.660340965 -3.834625244 -5.154613018
C 1.570340276 -3.238624573 -4.311618328
C 2.333340883 -0.991625905 -3.765610456
C 2.440341234 -3.810625076 -3.364609480
C 3.210340738 -1.548627138 -2.840615034
C 3.243340731 -2.959625244 -2.633614302
N 2.864341021 -1.105626345 -8.002611160
C 3.294340372 -2.232627153 -8.824606895
C 3.594340563 -3.447626114 -7.966616154
O 4.600341797 -3.455625534 -7.217616558
C 4.495341301 -1.917626619 -9.717612267
C 4.541341782 -2.942625046 -10.833609581
C 4.367341042 -0.527626991 -10.318610191
N 2.692341089 -4.442625999 -8.075614929
C 2.738340616 -5.706626892 -7.327617168
C 4.140341282 -6.295627594 -7.322612286
O 4.759341240 -6.442626953 -6.254611492
N 7.242341042 -4.727626801 -5.446612835
C 6.773341179 -4.360627174 -4.082613468
C 6.867341042 -2.855625153 -3.774613142
O 7.487341881 -2.436624765 -2.776612043
C 7.510341644 -5.188627243 -2.986611128
C 7.048341751 -4.852626801 -1.559609175
O 5.859341621 -4.837627411 -1.260613322
N 8.000341415 -4.562627792 -0.679612041
N 6.259341240 -2.034627199 -4.626613140
C 6.392341614 -0.598626137 -4.429614544
C 5.270341873 0.206374079 -5.015613079
O 4.543341637 -0.274626762 -5.910617352
C 7.773341179 -0.072627068 -4.893611431
C 8.010340691 -0.195626348 -6.396617413
O 7.143341064 -0.584626198 -7.179614544
N 9.208340645 0.168373853 -6.801616192
N 5.106341362 1.406372786 -4.460612774
C 4.233340740 2.420373917 -5.057612896
C 5.177341461 3.442374706 -5.662616253
O 6.251341820 3.709372997 -5.097613811
C 3.404340982 3.169374466 -4.006616592
C 2.198340893 2.477375031 -3.384613752
C 0.989341319 2.239374161 -3.968614340
C 2.090341091 1.999374390 -2.035614729
N 0.145341516 1.614373446 -3.082611799
C 0.798341453 1.465373039 -1.882615089
C 2.975341082 1.950374603 -0.949608624
C 0.357341379 0.898373485 -0.673615336
C 2.532341242 1.393374205 0.247389674
C 1.236341119 0.873373866 0.368384272
N -2.296658278 7.818371773 2.811385393
C -2.277659178 6.345373154 2.786391497
C -3.495659590 5.815372467 3.558386564
O -3.605658293 5.961372375 4.783382893
C -0.954659164 5.740373611 3.313384295
C 0.334340692 5.731372833 2.448386431
C 1.501340985 5.097372055 3.195388079
C 0.177341104 5.061372757 1.092391014
N -4.414657593 5.190372467 2.830390215
C -5.761657715 5.024372101 3.355383635
C -6.265659332 3.577374697 3.284384966
O -5.685659409 2.747375488 2.583388567
C -6.734659195 6.003372192 2.626387835
C -7.028657913 5.629373550 1.166388750
C -8.156659126 4.888372421 0.840384603
C -6.146657944 5.995372772 0.128386512
C -8.432660103 4.537372589 -0.475609690
C -6.379657745 5.625371933 -1.207611918
C -7.531658173 4.902372360 -1.499611616
O -7.806658268 4.537372589 -2.781609297
