195

Cl 2.777004242 2.227911234 0.452826500
O 2.768711805 2.414414644 3.087490559
S 1.638981700 1.939277172 0.615105808
B -2.433137655 -2.733184099 -4.135642529
Cl -1.310630560 -2.699517012 -2.598115921
O 0.459847331 2.514392614 0.865274131
S -1.081740975 -1.179551125 -1.987373114
I -1.536208630 -3.634713173 -1.362035871
C -1.126255751 -0.963522553 -2.506303549
Cl 0.967104554 1.022243261 -0.139305755
B 2.904542923 2.469166756 1.692151546
B -3.761286736 -2.684891701 -0.063515790
O -3.054826260 -2.923918247 -0.182502061
Cl -2.836114407 -2.497493267 0.210418269
I 1.083738565 0.971039474 1.532564759
F -1.427272201 -3.801064014 -2.712853670
F 1.381121874 2.445214987 3.347240210
C 2.756673813 2.617864847 -0.357782304
N -1.098985910 1.584579587 -0.569602847
C 2.928731918 2.911750555 4.811961174
N 7.053247929 -0.147431821 1.000377059
C 6.642248631 -0.798433125 2.241381645
C 7.684248447 -1.825431824 2.751376152
O 7.770247936 -2.919430494 2.199374199
C 5.327248096 -1.517433405 1.859377384
C 4.873248577 -0.881431341 0.606379569
C 6.082248211 -0.342431217 -0.090619422
N 5.180248737 -4.092432499 6.985370636
C 4.360248089 -3.362432241 6.030368805
C 4.447247982 -3.858432055 4.571369171
O 3.778242826 -3.299431562 3.696375370
C 4.666247845 -1.862432003 6.127368927
O 4.131247044 -1.293432236 7.331371307
N 5.237247944 -4.906433582 4.303371429
C 5.444248676 -5.417433262 2.924380302
C 4.154248714 -5.663431644 2.118381023
O 3.170243025 -6.193434238 2.634379387
C 6.316248417 -6.682432652 2.942378044
C 7.081247807 -6.932432652 1.649378777
C 7.991249084 -8.156428337 1.716379881
C 8.754242897 -8.372427940 0.404375792
N 7.960246563 -8.120429039 -0.841618299
N 4.157248974 -5.273432255 0.849376082
C 2.970243216 -5.420433521 0.005381354
C 1.909243941 -4.348433018 0.243380263
O 0.817244232 -4.448433399 -0.316624552
N 2.206241846 -3.344431639 1.085376024
C 1.293245912 -2.196430922 1.326380730
C 0.271245182 -2.349430799 2.462374687
O -0.952757120 -2.145432234 2.261378765
N 0.785244882 -2.689430952 3.654375553
C -0.003754628 -3.005430937 4.854373932
C 0.428244770 -2.253432035 6.085369110
O 1.569245458 -1.809432983 6.197368622
C 0.055245340 -4.506432056 5.172374725
C -0.583754718 -5.331432819 4.095374107
C -1.976754785 -5.459433079 4.035377502
C 0.194245309 -5.972433567 3.117381096
C -2.584758043 -6.211431980 3.034380913
C -0.401755154 -6.721434116 2.110377789
C -1.793755174 -6.830431461 2.075381756
O -2.418757677 -7.559429646 1.077380419
N -0.512755394 -2.109431028 7.013370514
C -0.190754727 -1.668431997 8.376379013
C -0.559754550 -2.830431700 9.302381516
O -1.558754802 -3.545431852 9.065382004
C -0.916755378 -0.358431965 8.747381210
C -2.438758135 -0.382432252 8.586378098
S -3.327758074 1.103567839 9.160383224
C -4.989751339 0.441569090 8.950384140
N -3.904756784 -4.867432117 7.584369659
C -4.944751263 -4.101433277 6.853374481
C -4.291751385 -3.346430540 5.675373077
O -3.233756304 -2.675431013 5.836368561
C -5.700751781 -3.127430677 7.807369232
C -6.451751232 -2.060431242 7.044368744
C -6.672751904 -3.907435417 8.703382492
N -4.898751736 -3.484431505 4.490367889
C -4.401751995 -2.804430723 3.292376518
C -4.478751659 -1.281433105 3.376376152
O -5.483750820 -0.707431555 3.866381168
N -3.406756639 -0.645433187 2.931376457
C -3.351756334 0.802569270 2.698374748
C -3.405757189 1.137567997 1.219377995
O -3.015757799 0.345568419 0.391375214
C -2.066756010 1.386568069 3.270380974
C -2.034755945 1.467567682 4.805370331
C -0.702756226 2.037567854 5.293369293
C -3.193757296 2.309568644 5.324367523
N -3.883756876 2.332567930 0.893374979
C -3.877756357 2.844569445 -0.479618788
C -3.286757708 4.259567738 -0.451618999
O -3.503756762 5.011567593 0.541376889
C -5.308751583 2.862569094 -1.068624020
C -5.892751217 1.469568491 -1.227620602
C -5.847751141 0.820568800 -2.453625679
C -6.466752529 0.783568263 -0.142621353
C -6.376752377 -0.458432704 -2.618618965
C -6.996751308 -0.487432033 -0.289624423
C -6.944751263 -1.112432003 -1.536626101
O -7.426751614 -2.405430555 -1.736624241
N -2.535756350 4.609568119 -1.511624575
C -2.083756208 5.988566875 -1.729620218
C -3.041756868 6.849566936 -2.595623970
O -3.514756441 6.409566402 -3.651621819
C -0.710755765 5.985566616 -2.389622688
O -0.335755110 7.318566799 -2.688618660
N -0.078755267 8.347567558 -5.464626312
C 0.945244849 7.546567440 -6.115627289
C 0.335245222 6.326566219 -6.758625031
O -0.764754713 5.943566799 -6.425632477
C 2.072242498 7.175567150 -5.129627228
C 2.874242544 8.372567177 -4.642627716
S 4.225247860 7.938567638 -3.522625923
C 3.325242758 6.974566936 -2.310620308
N 1.041245341 5.745566845 -7.713622093
C 0.579244435 4.547567844 -8.397623062
C 1.332245231 3.368569613 -7.752624512
O 2.538243055 3.450568438 -7.469631195
C 0.864244282 4.660568714 -9.910615921
N 0.605244219 2.296568155 -7.478626251
C 1.154246211 1.120567799 -6.828632355
C 1.599245191 0.068568118 -7.863625526
O 0.796244442 -0.389432222 -8.698617935
C 0.088245325 0.515568614 -5.899631500
C 0.497245133 -0.842431903 -5.324626923
C 0.018244732 -2.089430571 -5.688625336
C 1.489244580 -1.072431326 -4.309627533
N 0.657244265 -3.067431688 -4.949626923
C 1.567244649 -2.471430540 -4.106632233
C 2.330242872 -0.224431157 -3.560620308
C 2.437243223 -3.043431520 -3.159619331
C 3.207242727 -0.781433165 -2.635624886
C 3.240242720 -2.192431211 -2.428624153
N 2.861243010 -0.338431507 -7.797622681
C 3.291242361 -1.465433359 -8.619615555
C 3.591242552 -2.680432081 -7.761628151
O 4.597248554 -2.688431501 -7.012630463
C 4.492248058 -1.150432587 -9.512620926
C 4.538248539 -2.175431013 -10.628618240
C 4.364247799 0.239567444 -10.113618851
N 2.689243078 -3.675431490 -7.870625496
C 2.735242605 -4.939432621 -7.122631073
C 4.137247562 -5.528433323 -7.117626190
O 4.756247997 -5.675432682 -6.049625397
N 7.239247799 -3.960433245 -5.241626740
C 6.770247936 -3.593433142 -3.877625465
C 6.864247799 -2.088431120 -3.569622993
O 7.484248638 -1.669431448 -2.571621895
C 7.507248402 -4.421432972 -2.781620979
C 7.045248508 -4.085432529 -1.354619265
O 5.856248379 -4.070433140 -1.055623531
N 7.997247696 -3.795432806 -0.474621534
N 6.256247997 -1.267433167 -4.421627045
C 6.389248371 0.168568298 -4.224628448
C 5.267248631 0.973568678 -4.810626984
O 4.540248394 0.492567867 -5.705631256
C 7.770247936 0.694567382 -4.688625336
C 8.007246017 0.571568191 -6.191631317
O 7.140247822 0.182568192 -6.974628448
N 9.205243111 0.935568452 -6.596630096
N 5.103248119 2.173567533 -4.255626678
C 4.230247974 3.187567949 -4.852626801
C 5.174248219 4.209568501 -5.457630157
O 6.248248577 4.476568699 -4.892627716
C 3.401242971 3.936568499 -3.801629066
C 2.195242167 3.244569063 -3.179623604
C 0.986245394 3.006568193 -3.763624191
C 2.087243319 2.766568899 -1.830624104
N 0.142245382 2.381568193 -2.877621651
C 0.795244992 2.232567549 -1.677625418
C 2.972243071 2.717569113 -0.744618118
C 0.354245305 1.665567636 -0.468624860
C 2.529243231 2.160569429 0.452379942
C 1.233245730 1.640568018 0.573374629
N -2.299756289 8.585566521 3.016375542
C -2.280757189 7.112567425 2.991381645
C -3.498757601 6.582566738 3.763376713
O -3.608756304 6.728566647 4.988368988
C -0.957755983 6.507567883 3.518374443
C 0.331244528 6.498567104 2.653376579
C 1.498245358 5.864566326 3.400378227
C 0.174244955 5.828567028 1.297381163
N -4.417750835 5.957566738 3.035380363
C -5.764750957 5.791566372 3.560373783
C -6.268752575 4.344567776 3.489375114
O -5.688752651 3.514569521 2.788378716
C -6.737752438 6.770566463 2.831377983
C -7.031751156 6.396567822 1.371378899
C -8.159754753 5.655566692 1.045374870
C -6.149751186 6.762567043 0.333376586
C -8.435757637 5.304566860 -0.270619392
C -6.382750988 6.392566204 -1.002622008
C -7.534751415 5.669566631 -1.294621706
O -7.809750080 5.304566860 -2.576619148
