195

C 2.624731064 2.020870209 0.549109936
F 2.635974646 2.505743980 3.413208961
O 2.029331684 1.655259967 0.723573864
B -2.370202541 -2.690676212 -3.998951674
I -1.425491333 -2.316467285 -2.614911318
O 0.532515585 2.540443897 0.720659077
S -1.221829653 -1.222741008 -2.091593504
F -1.704139471 -3.545324802 -1.358978868
Cl -1.334149122 -1.039682984 -2.546598196
C 1.051898956 1.419564605 0.098487414
B 2.817254305 2.384833813 1.662473798
B -3.874192953 -2.561086178 0.436860859
Br -3.225418329 -2.974143028 -0.310864031
Br -2.862931728 -2.871343613 0.130617812
I 1.361176014 0.949062586 1.438646436
F -1.636340380 -3.661841869 -2.989035130
N 1.755653858 2.603503227 3.413030148
C 3.054720163 2.459662914 -0.488220185
N -1.084885836 1.435211301 -0.628135085
C 2.876326084 2.909150600 4.440618992
N 6.989173889 -0.136090189 0.947422624
C 6.578174591 -0.787091672 2.188427448
C 7.620174408 -1.814090133 2.698421955
O 7.706173897 -2.908089161 2.146420002
C 5.263174057 -1.506091714 1.806422830
C 4.809174538 -0.870089889 0.553425133
C 6.018174171 -0.331089556 -0.143573821
N 5.116174698 -4.081089020 6.932415962
C 4.296174049 -3.351090908 5.977414131
C 4.383173943 -3.847090721 4.518414497
O 3.714169264 -3.288090229 3.643421173
C 4.602173805 -1.851090312 6.074414253
O 4.067173004 -1.282090545 7.278416634
N 5.173173904 -4.895090103 4.250416756
C 5.380174637 -5.406089783 2.871426105
C 4.090174675 -5.652088165 2.065426826
O 3.106169462 -6.182090759 2.581425190
C 6.252174377 -6.671089172 2.889423847
C 7.017173767 -6.921089172 1.596424222
C 7.927175522 -8.145085335 1.663425326
C 8.690170288 -8.361084938 0.351421446
N 7.896172523 -8.109086037 -0.894572735
N 4.093174934 -5.262088776 0.796421647
C 2.906169653 -5.409090042 -0.047573034
C 1.845170498 -4.337089539 0.190425903
O 0.753170669 -4.437089920 -0.369578898
N 2.142168283 -3.333090305 1.032421470
C 1.229172468 -2.185089588 1.273426175
C 0.207171649 -2.338089466 2.409420490
O -1.016830683 -2.134090900 2.208424568
N 0.721171319 -2.678089619 3.601421356
C -0.067828178 -2.994089603 4.801419258
C 0.364171177 -2.242090702 6.032414436
O 1.505172014 -1.798091292 6.144413948
C -0.008828210 -4.495088577 5.119420052
C -0.647828281 -5.320089340 4.042419434
C -2.040828466 -5.448089600 3.982422829
C 0.130171746 -5.961090088 3.064426899
C -2.648831606 -6.200088501 2.981426716
C -0.465828747 -6.710090637 2.057423592
C -1.857828617 -6.819087982 2.022427559
O -2.482831240 -7.548086166 1.024425864
N -0.576828957 -2.098089695 6.960415840
C -0.254828304 -1.657090306 8.323425293
C -0.623828113 -2.819090366 9.249427795
O -1.622828245 -3.534090519 9.012428284
C -0.980828941 -0.347090304 8.694427490
C -2.502831697 -0.371090591 8.533424377
S -3.391831636 1.114909530 9.107429504
C -5.053825378 0.452910751 8.897430420
N -3.968830347 -4.856088638 7.531414986
C -5.008825302 -4.090089798 6.800419807
C -4.355825424 -3.335089207 5.622418404
O -3.297829866 -2.664089680 5.783413887
C -5.764825821 -3.116089344 7.754414558
C -6.515825272 -2.049089909 6.991414070
C -6.736825943 -3.896094322 8.650428772
N -4.962825775 -3.473090172 4.437413216
C -4.465826035 -2.793089390 3.239422321
C -4.542825699 -1.270091414 3.323421955
O -5.547824860 -0.696090102 3.813426971
N -3.470830202 -0.634091735 2.878422260
C -3.415829897 0.813910723 2.645420551
C -3.469830751 1.148909688 1.166423440
O -3.079831362 0.356910080 0.338420868
C -2.130829573 1.397909760 3.217426777
C -2.098829508 1.478909373 4.752415657
C -0.766829789 2.048909187 5.240414619
C -3.257830858 2.320909977 5.271412849
N -3.947830439 2.343909264 0.840420544
C -3.941829920 2.855910778 -0.532573223
C -3.350831270 4.270911217 -0.504573345
O -3.567830324 5.022911072 0.488422483
C -5.372825623 2.873910427 -1.121578574
C -5.956825256 1.480910182 -1.280575156
C -5.911825180 0.831910253 -2.506579876
C -6.530826569 0.794909716 -0.195575729
C -6.440826416 -0.447091043 -2.671573162
C -7.060825348 -0.476090342 -0.342578769
C -7.008825302 -1.101090312 -1.589580655
O -7.490825653 -2.394089222 -1.789578795
N -2.599829912 4.620911598 -1.564579129
C -2.147829771 5.999910355 -1.782574773
C -3.105830431 6.860910416 -2.648578167
O -3.578830004 6.420909882 -3.704576015
C -0.774829328 5.996910095 -2.442576885
O -0.399828702 7.329910278 -2.741572857
N -0.142828807 8.358910561 -5.517580986
C 0.881171286 7.557910919 -6.168581963
C 0.271171629 6.337909698 -6.811579704
O -0.828828275 5.954910278 -6.478587151
C 2.008168936 7.186910629 -5.182581902
C 2.810168982 8.383910179 -4.695582390
S 4.161173820 7.949911118 -3.575580120
C 3.261169195 6.985910416 -2.363574505
N 0.977171838 5.756910324 -7.766576767
C 0.515170872 4.558911324 -8.450576782
C 1.268171787 3.379910946 -7.805579185
O 2.474169493 3.461909771 -7.522585869
C 0.800170720 4.671912193 -9.963569641
N 0.541170657 2.307909489 -7.531580925
C 1.090172768 1.131909490 -6.881587029
C 1.535171747 0.079909720 -7.916580200
O 0.732170880 -0.378090560 -8.751571655
C 0.024171768 0.526910067 -5.952586174
C 0.433171540 -0.831090450 -5.377581596
C -0.045828819 -2.078089237 -5.741580009
C 1.425171137 -1.061089635 -4.362582207
N 0.593170702 -3.056090355 -5.002581596
C 1.503171206 -2.460089207 -4.159586906
C 2.266169310 -0.213089511 -3.613574505
C 2.373169661 -3.032090187 -3.212573528
C 3.143169165 -0.770091712 -2.688579082
C 3.176169157 -2.181089878 -2.481578350
N 2.797169447 -0.327089846 -7.850577354
C 3.227168798 -1.454091668 -8.672569275
C 3.527168989 -2.669090748 -7.814582825
O 4.533174515 -2.677090168 -7.065585136
C 4.428174019 -1.139090896 -9.565574646
C 4.474174500 -2.164089680 -10.681571960
C 4.300173759 0.250909090 -10.166572571
N 2.625169516 -3.664090157 -7.923580170
C 2.671169043 -4.928089142 -7.175585747
C 4.073173523 -5.517089844 -7.170580864
O 4.692173958 -5.664089203 -6.102580070
N 7.175173759 -3.949091911 -5.294581413
C 6.706173897 -3.582091808 -3.930579662
C 6.800173759 -2.077089787 -3.622577190
O 7.420174599 -1.658089757 -2.624576092
C 7.443174362 -4.410089493 -2.834575176
C 6.981174469 -4.074089050 -1.407573819
O 5.792174339 -4.059089661 -1.108578086
N 7.933174133 -3.784091473 -0.527575970
N 6.192173958 -1.256091475 -4.474581718
C 6.325174332 0.179909945 -4.277583122
C 5.203174591 0.984910071 -4.863581657
O 4.476174355 0.503909469 -5.758585930
C 7.706173897 0.705908835 -4.741580009
C 7.943172455 0.582909644 -6.244585991
O 7.076173782 0.193909839 -7.027583122
N 9.141170502 0.946909904 -6.649584770
N 5.039174080 2.184908867 -4.308581352
C 4.166173935 3.198909283 -4.905581474
C 5.110174179 4.220911980 -5.510584831
O 6.184174538 4.487912178 -4.945582390
C 3.337169409 3.947909832 -3.854583263
C 2.131168604 3.255910397 -3.232577801
C 0.922171831 3.017909527 -3.816578388
C 2.023169756 2.777910233 -1.883578658
N 0.078171857 2.392909527 -2.930575848
C 0.731171429 2.243908882 -1.730579972
C 2.908169508 2.728910446 -0.797572553
C 0.290171713 1.676909328 -0.521579206
C 2.465169668 2.171910763 0.399425596
C 1.169172287 1.651909709 0.520420194
N -2.363829851 8.596909523 2.963421345
C -2.344830751 7.123910904 2.938427448
C -3.562831163 6.593910217 3.710422516
O -3.672829866 6.739910126 4.935414314
C -1.021829367 6.518911362 3.465420246
C 0.267170936 6.509910583 2.600422382
C 1.434171915 5.875909805 3.347424030
C 0.110171415 5.839910507 1.244426608
N -4.481824875 5.968910217 2.982426167
C -5.828824997 5.802909851 3.507419586
C -6.332826614 4.355911255 3.436420918
O -5.752826691 3.525910854 2.735424519
C -6.801826477 6.781909943 2.778423786
C -7.095825195 6.407911301 1.318424344
C -8.223827362 5.666910172 0.992420495
C -6.213825226 6.773910522 0.280422240
C -8.499830246 5.315910339 -0.323573738
C -6.446825027 6.403909683 -1.055576563
C -7.598825455 5.680910110 -1.347576261
O -7.873824120 5.315910339 -2.629573345
