195

Br 2.731163740 2.492885113 0.258942753
O 2.975718975 2.083475590 2.912966490
S 1.834447861 2.065246105 0.872506738
B -2.301289320 -2.461768866 -3.755577564
Cl -1.373225808 -2.540370464 -2.446431398
O 0.274105310 2.490551710 0.382584840
S -1.371153474 -1.231767058 -2.146686077
I -1.570167065 -3.454362631 -1.643511891
I -1.285328150 -1.347508192 -2.323999166
Cl 1.017063856 0.970964253 -0.041263908
B 3.165999651 2.381574392 1.754335761
B -3.859375000 -2.951225758 -0.178242013
O -2.815817356 -3.103348494 -0.295194238
N -2.614228487 -1.815866947 0.247224599
I 1.061975002 0.609218299 1.390568972
F -1.320868015 -3.391382694 -2.343971729
N 1.418759108 2.750918150 3.394047976
C 2.182495117 2.412828922 -0.472550154
Cl -1.109594226 1.221856594 -0.429483980
I 2.959317684 2.818082333 4.863733768
N 7.026334286 -0.273386896 1.074649215
C 6.615334988 -0.924388230 2.315654516
C 7.657334805 -1.951386690 2.825649023
O 7.743334293 -3.045385599 2.273647070
C 5.300334454 -1.643388271 1.933649659
C 4.846334934 -1.007386446 0.680651605
C 6.055334568 -0.468386263 -0.016347025
N 5.153335094 -4.218389034 7.059644222
C 4.333334446 -3.488387346 6.104642391
C 4.420334339 -3.984387159 4.645642757
O 3.751329660 -3.425386667 3.770648241
C 4.639334202 -1.988386869 6.201642513
O 4.104333401 -1.419387102 7.405644894
N 5.210334301 -5.032390118 4.377645016
C 5.417335033 -5.543389797 2.998653173
C 4.127335072 -5.789388180 2.192653894
O 3.143329859 -6.319390774 2.708652258
C 6.289334774 -6.808389187 3.016650915
C 7.054334164 -7.058389187 1.723651052
C 7.964335918 -8.282382965 1.790652156
C 8.727327347 -8.498382568 0.478648156
N 7.933332920 -8.246383667 -0.767346263
N 4.130335331 -5.399388790 0.923648119
C 2.943330050 -5.546390057 0.079653732
C 1.882330298 -4.474389553 0.317652732
O 0.790330768 -4.574389935 -0.242352113
N 2.179328680 -3.470386744 1.159648299
C 1.266332269 -2.322386026 1.400653005
C 0.244331658 -2.475385904 2.536647558
O -0.979670584 -2.271387339 2.335651636
N 0.758331418 -2.815386057 3.728648424
C -0.030668123 -3.131386042 4.928647518
C 0.401331276 -2.379387140 6.159642696
O 1.542331815 -1.935387850 6.271642208
C 0.028331842 -4.632388592 5.246648312
C -0.610668182 -5.457389355 4.169647694
C -2.003668547 -5.585389614 4.109651089
C 0.167331800 -6.098390102 3.191653967
C -2.611671209 -6.337388515 3.108653784
C -0.428668648 -6.847390652 2.184650660
C -1.820668817 -6.956387997 2.149654627
O -2.445670843 -7.685386181 1.151652694
N -0.539668798 -2.235386133 7.087644100
C -0.217668235 -1.794386864 8.450652122
C -0.586668015 -2.956386805 9.376654625
O -1.585668445 -3.671386957 9.139655113
C -0.943668842 -0.484387010 8.821654320
C -2.465671301 -0.508387268 8.660651207
S -3.354671240 0.977612972 9.234656334
C -5.016664982 0.315614045 9.024657249
N -3.931669950 -4.993388653 7.658643246
C -4.971664906 -4.227389812 6.927648067
C -4.318665028 -3.472385645 5.749646664
O -3.260669470 -2.801386118 5.910642147
C -5.727665424 -3.253385782 7.881642818
C -6.478664875 -2.186386347 7.118642330
C -6.699665546 -4.033390522 8.777655602
N -4.925665379 -3.610386610 4.564641476
C -4.428665638 -2.930385828 3.366649389
C -4.505665302 -1.407387972 3.450649023
O -5.510664463 -0.833386660 3.940654039
N -3.433669806 -0.771388292 3.005649328
C -3.378669500 0.676614165 2.772647619
C -3.432670355 1.011613131 1.293650270
O -3.042670965 0.219613343 0.465647638
C -2.093669176 1.260613203 3.344653845
C -2.061669111 1.341612816 4.879643917
C -0.729669690 1.911612511 5.367642879
C -3.220670462 2.183613539 5.398641109
N -3.910670042 2.206612825 0.967647016
C -3.904669523 2.718614340 -0.405346364
C -3.313670874 4.133611202 -0.377346575
O -3.530669928 4.885611057 0.615648925
C -5.335665226 2.736613989 -0.994351804
C -5.919664860 1.343613625 -1.153348327
C -5.874664783 0.694613695 -2.379352808
C -6.493666172 0.657613158 -0.068348944
C -6.403666019 -0.584387660 -2.544346094
C -7.023664951 -0.613386989 -0.215352014
C -6.971664906 -1.238386869 -1.462353826
O -7.453665257 -2.531385660 -1.662351966
N -2.562669516 4.483611584 -1.437352300
C -2.110669374 5.862610340 -1.655347943
C -3.068670034 6.723610401 -2.521351099
O -3.541669607 6.283609867 -3.577348948
C -0.737669230 5.859610081 -2.315349817
O -0.362668604 7.192610264 -2.614345789
N -0.105668768 8.221612930 -5.390352726
C 0.918331385 7.420610905 -6.041353703
C 0.308331728 6.200609684 -6.684351444
O -0.791668177 5.817610264 -6.351358891
C 2.045329332 7.049610615 -5.055353642
C 2.847329378 8.246612549 -4.568354130
S 4.198334217 7.812611103 -3.448353052
C 3.298329592 6.848610401 -2.236347437
N 1.014331698 5.619610310 -7.639348507
C 0.552330971 4.421611309 -8.323349953
C 1.305331588 3.242614508 -7.678350925
O 2.511329889 3.324613333 -7.395357609
C 0.837330818 4.534612179 -9.836342812
N 0.578330755 2.170613050 -7.404352665
C 1.127332568 0.994613051 -6.754358768
C 1.572331548 -0.057386987 -7.789351940
O 0.769330978 -0.515387237 -8.624344826
C 0.061331831 0.389613390 -5.825357914
C 0.470331520 -0.968387008 -5.250353336
C -0.008668775 -2.215385675 -5.614351749
C 1.462330937 -1.198386192 -4.235353947
N 0.630330801 -3.193386793 -4.875353336
C 1.540331006 -2.597385645 -4.032358646
C 2.303329706 -0.350386232 -3.486347437
C 2.410330057 -3.169386625 -3.085346460
C 3.180329561 -0.907388270 -2.561352015
C 3.213329554 -2.318386316 -2.354351282
N 2.834329844 -0.464386553 -7.723349094
C 3.264329195 -1.591388226 -8.545342445
C 3.564329386 -2.806387186 -7.687354565
O 4.570334911 -2.814386606 -6.938356876
C 4.465334415 -1.276387453 -9.438347816
C 4.511334896 -2.301386118 -10.554345131
C 4.337334156 0.113612354 -10.039345741
N 2.662329912 -3.801386595 -7.796351910
C 2.708329439 -5.065389156 -7.048357487
C 4.110333920 -5.654389858 -7.043352604
O 4.729334354 -5.801389217 -5.975351810
N 7.212334156 -4.086389065 -5.167353153
C 6.743334293 -3.719388247 -3.803352594
C 6.837334156 -2.214386225 -3.495350122
O 7.457334995 -1.795386314 -2.497349024
C 7.480334759 -4.547389507 -2.707348108
C 7.018334866 -4.211389065 -1.280346990
O 5.829334736 -4.196389675 -0.981351316
N 7.970334530 -3.921387911 -0.400349110
N 6.229334354 -1.393388033 -4.347353458
C 6.362334728 0.042613234 -4.150354862
C 5.240334988 0.847613573 -4.736353397
O 4.513334751 0.366612703 -5.631357670
C 7.743334293 0.568612278 -4.614351749
C 7.980332851 0.445613027 -6.117357731
O 7.113334179 0.056613129 -6.900354862
N 9.178327560 0.809613347 -6.522356510
N 5.076334476 2.047612429 -4.181353092
C 4.203334332 3.061612844 -4.778353214
C 5.147334576 4.083611965 -5.383356571
O 6.221334934 4.350612164 -4.818354130
C 3.374329805 3.810613394 -3.727356195
C 2.168329000 3.118613958 -3.105350733
C 0.959331870 2.880613089 -3.689351320
C 2.060330153 2.640613794 -1.756351829
N 0.115331858 2.255613089 -2.803348780
C 0.768331528 2.106612444 -1.603353143
C 2.945329905 2.591614008 -0.670346081
C 0.327331811 1.539612770 -0.394352436
C 2.502330065 2.034614325 0.526652098
C 1.206332088 1.514613152 0.647646666
N -2.326669455 8.459611893 3.090648413
C -2.307670355 6.986610889 3.065654516
C -3.525670767 6.456610203 3.837649584
O -3.635669470 6.602610111 5.062642574
C -0.984669447 6.381611347 3.592647314
C 0.304331034 6.372610569 2.727649450
C 1.471331716 5.738609791 3.474651098
C 0.147331446 5.702610493 1.371653438
N -4.444664478 5.831610203 3.109653234
C -5.791664600 5.665609837 3.634646654
C -6.295666218 4.218611240 3.563647985
O -5.715666294 3.388614416 2.862651587
C -6.764666080 6.644609928 2.905650854
C -7.058664799 6.270611286 1.445651174
C -8.186670303 5.529610157 1.119647145
C -6.176664829 6.636610508 0.407649010
C -8.462673187 5.178610325 -0.196346983
C -6.409664631 6.266609669 -0.928349853
C -7.561665058 5.543610096 -1.220349431
O -7.836663723 5.178610325 -2.502346277
