195

Cl 2.296991587 1.666867018 -0.067159608
B 2.770412207 1.290633798 1.360310793
S 1.069203019 2.295436144 0.988719285
C -2.655882120 -1.073243380 -2.850257397
Cl -1.172922134 -1.984086394 -1.109864831
B 0.538298249 2.744369268 -0.200242758
S -1.250229239 -1.119296312 -0.748252630
F -2.419560432 -2.860035896 -0.993813157
P 0.286250472 -0.983459413 -2.772918224
I 0.438859940 0.040498208 0.023890015
S 2.452544451 1.366584539 1.503095508
C -2.318184614 -2.659114361 0.174698800
F -2.804085016 -2.805978775 0.184163362
B -1.845062971 -1.796013713 0.056543093
N 0.720169961 0.881600916 0.710599124
F -0.480450273 -2.915888548 -3.006332159
N 0.638941824 2.704991102 3.015401602
I 2.729734898 1.676983476 -0.479870081
P -1.057070255 1.293056488 0.174867585
Cl 2.062039852 2.236095667 4.036421299
N 7.000874519 -0.460973591 0.804922700
C 6.589875221 -1.111974478 2.045926571
C 7.631875038 -2.138973236 2.555921078
O 7.717874527 -3.232972145 2.003919601
C 5.274874687 -1.830974817 1.663923502
C 4.820875168 -1.194972754 0.410925061
C 6.029874802 -0.655973196 -0.286073446
N 5.127875328 -4.405974388 6.789918900
C 4.307874680 -3.675973892 5.834917068
C 4.394874573 -4.171974182 4.375917435
O 3.725872278 -3.612973213 3.500920296
C 4.613874435 -2.175973415 5.931917191
O 4.078873634 -1.606973648 7.135919571
N 5.184874535 -5.219975471 4.107919693
C 5.391875267 -5.730975151 2.728925228
C 4.101874352 -5.976973534 1.922926426
O 3.117872477 -6.506976128 2.438924313
C 6.263875008 -6.995974541 2.746922970
C 7.028874397 -7.245974541 1.453924894
C 7.938876152 -8.469972610 1.520925999
C 8.701871872 -8.685972214 0.208921626
N 7.907873154 -8.433973312 -1.037072659
N 4.104874611 -5.586974144 0.653921545
C 2.917872667 -5.733975410 -0.190072745
C 1.856872797 -4.661974907 0.047926251
O 0.764873505 -4.761975288 -0.512078702
N 2.153871775 -3.657973289 0.889921963
C 1.240874767 -2.509972572 1.130926847
C 0.218874216 -2.662972450 2.266919613
O -1.005127430 -2.458973885 2.065923691
N 0.732874155 -3.002972603 3.458920479
C -0.056125566 -3.318972588 4.658922195
C 0.375873834 -2.566973686 5.889917374
O 1.516874313 -2.122974396 6.001916885
C 0.002874420 -4.819973946 4.976922989
C -0.636125445 -5.644974709 3.899921894
C -2.029125929 -5.772974968 3.839924812
C 0.141874358 -6.285975456 2.921926022
C -2.637128592 -6.524973869 2.838925838
C -0.454126090 -7.034976006 1.914923191
C -1.846126556 -7.143973351 1.879926920
O -2.471128225 -7.872971535 0.881926298
N -0.565126061 -2.422972679 6.817918777
C -0.243125737 -1.981973410 8.180927277
C -0.612125278 -3.143973351 9.106929779
O -1.611125946 -3.858973503 8.869930267
C -0.969125986 -0.671973944 8.551929474
C -2.491128683 -0.695974112 8.390926361
S -3.380128622 0.790026069 8.964931488
C -5.042124748 0.128027320 8.754932404
N -3.957127571 -5.180974007 7.388917923
C -4.997124672 -4.414975166 6.657922745
C -4.344124794 -3.659972191 5.479921341
O -3.286126852 -2.988972664 5.640916824
C -5.753125191 -3.440972328 7.611917496
C -6.504124641 -2.373972893 6.848917007
C -6.725125313 -4.220975876 8.507930756
N -4.951125145 -3.797973156 4.294916153
C -4.454125404 -3.117972374 3.096921444
C -4.531125069 -1.594974518 3.180921078
O -5.536124229 -1.020973206 3.670926094
N -3.459127188 -0.958975017 2.735921383
C -3.404126883 0.489027500 2.502919674
C -3.458127737 0.824026227 1.023924232
O -3.068128347 0.032026738 0.195921108
C -2.119126558 1.073026657 3.074925900
C -2.087126255 1.154026270 4.609918594
C -0.755126953 1.724025965 5.097917557
C -3.246127844 1.996027231 5.128915787
N -3.936128139 2.019026279 0.697920442
C -3.930127144 2.531027794 -0.675073028
C -3.339128256 3.946025848 -0.647073209
O -3.556127310 4.698025703 0.345922500
C -5.361124992 2.549027443 -1.264077902
C -5.945124626 1.156027079 -1.423074484
C -5.900124550 0.507027030 -2.649080753
C -6.519125938 0.470026672 -0.338075399
C -6.429125786 -0.771974325 -2.814074039
C -7.049124718 -0.800973654 -0.485078454
C -6.997124672 -1.425973415 -1.732079983
O -7.479125023 -2.718972206 -1.932078004
N -2.588126898 4.296026230 -1.707078457
C -2.136126757 5.675024986 -1.925074100
C -3.094127417 6.536025047 -2.791079044
O -3.567126989 6.096024513 -3.847076893
C -0.763126493 5.672024727 -2.585077763
O -0.388126105 7.005024910 -2.884073734
N -0.131126195 8.034024239 -5.660078049
C 0.892874122 7.233025551 -6.311079025
C 0.282874256 6.013024330 -6.954076767
O -0.817125440 5.630024910 -6.621084213
C 2.019872427 6.862025261 -5.325078964
C 2.821871996 8.059023857 -4.838079453
S 4.172874451 7.625025749 -3.718080997
C 3.272872210 6.661025047 -2.506075382
N 0.988873899 5.432024956 -7.909073830
C 0.526873648 4.234025955 -8.593074799
C 1.279874086 3.055027962 -7.948076248
O 2.485872507 3.137026787 -7.665082932
C 0.811873555 4.347026825 -10.106067657
N 0.552873492 1.983026743 -7.674077988
C 1.101874828 0.807026148 -7.024084091
C 1.546874046 -0.244973660 -8.059076309
O 0.743873715 -0.702974081 -8.894069672
C 0.035874389 0.202026591 -6.095083237
C 0.444874167 -1.155973196 -5.520078659
C -0.034126211 -2.402972221 -5.884077072
C 1.436873436 -1.385972738 -4.505079269
N 0.604873657 -3.380973339 -5.145078659
C 1.514873505 -2.784972191 -4.302083969
C 2.277872324 -0.537973166 -3.756075382
C 2.384872675 -3.356973171 -3.355074406
C 3.154872179 -1.094974518 -2.831079960
C 3.187872171 -2.505972862 -2.624079227
N 2.808872461 -0.651973486 -7.993073940
C 3.238871813 -1.778974771 -8.815067291
C 3.538872004 -2.993973732 -7.957078934
O 4.544875145 -3.001973152 -7.208082199
C 4.439874649 -1.463973999 -9.708072662
C 4.485875130 -2.488972664 -10.824069977
C 4.311874390 -0.073974319 -10.309070587
N 2.636872530 -3.988972902 -8.066076279
C 2.682872057 -5.252974510 -7.318082809
C 4.084874153 -5.841975212 -7.313077927
O 4.703874588 -5.988974571 -6.245077133
N 7.186874390 -4.273974419 -5.437078476
C 6.717874527 -3.906974792 -4.073079109
C 6.811874390 -2.401972771 -3.765078068
O 7.431875229 -1.982972860 -2.767076969
C 7.454874992 -4.734974861 -2.977076054
C 6.992875099 -4.398974419 -1.550073147
O 5.803874969 -4.383975029 -1.251077414
N 7.944875717 -4.108974457 -0.670075774
N 6.203874588 -1.580974579 -4.617078781
C 6.336874962 -0.144973442 -4.420080185
C 5.214875221 0.660026908 -5.006078720
O 4.487874985 0.179025918 -5.901082993
C 7.717874527 0.381025791 -4.884077072
C 7.954874992 0.258026302 -6.387083054
O 7.087874413 -0.130973533 -7.170080185
N 9.152872086 0.622026682 -6.792081833
N 5.050874710 1.860025883 -4.451078415
C 4.177874565 2.874026299 -5.048078537
C 5.121874809 3.896026134 -5.653081894
O 6.195875168 4.163026810 -5.088079453
C 3.348872423 3.623026848 -3.997083664
C 2.142872095 2.931027412 -3.375078678
C 0.933874607 2.693026543 -3.959078789
C 2.034872770 2.453027248 -2.026079178
N 0.089874364 2.068026543 -3.073076725
C 0.742874265 1.919026375 -1.873079300
C 2.919872522 2.404027462 -0.940072715
C 0.301874369 1.352026224 -0.664079130
C 2.476872683 1.847027302 0.256925702
C 1.180874348 1.327026606 0.377920300
N -2.352126837 8.272022247 2.820920467
C -2.333127737 6.799025536 2.795926571
C -3.551128149 6.269024849 3.567921638
O -3.661126852 6.415024757 4.792917252
C -1.010126352 6.194025993 3.322919369
C 0.278873563 6.185025215 2.457921505
C 1.445874214 5.551024437 3.204923153
C 0.121873952 5.515025139 1.101927280
N -4.470124245 5.644024849 2.839925289
C -5.817124367 5.478024483 3.364918709
C -6.321125984 4.031025410 3.293920040
O -5.741126060 3.201027870 2.592923641
C -6.790125847 6.457024574 2.635922909
C -7.084124565 6.083025932 1.175925016
C -8.212125778 5.342024803 0.849920750
C -6.202124596 6.449025154 0.137922511
C -8.488128662 4.991024971 -0.466073424
C -6.435124397 6.079024315 -1.198076010
C -7.587124825 5.356024742 -1.490075588
O -7.862124443 4.991024971 -2.772074223
