195

Br 2.947251081 2.078994751 -0.107225396
P 2.314731598 1.942301989 2.112385750
S 1.528857112 1.801409721 1.315907717
B -2.086409569 -2.029474735 -3.771681309
Cl -1.429852366 -2.192523241 -1.940816522
N 0.762853622 2.206650734 0.240489930
S -1.685639024 -1.658155203 -1.445263743
I -1.989115000 -2.870148659 -1.793457389
C -0.910422683 -0.369040281 -2.262270689
Cl 0.723783493 0.610146344 -0.353281140
B 2.580573559 2.229376316 1.560624242
B -3.541761398 -2.998978138 -0.248223469
O -2.203072071 -3.041655540 0.204406545
S -2.534245014 -1.970787406 0.658440709
I 0.974875808 0.734587610 1.565191269
F -1.135051608 -3.129970789 -2.931797266
N 1.714710951 2.960238457 3.626161337
I 2.583039522 1.952996969 -0.592333734
P -1.245130777 1.113778591 -0.836332202
I 2.630022764 2.630252123 4.999075413
N 6.815972805 -0.277277291 0.907957077
C 6.404973507 -0.928278446 2.148961782
C 7.446973324 -1.955277324 2.658956289
O 7.532972813 -3.049276352 2.106954336
C 5.089972973 -1.647278905 1.766957641
C 4.635973454 -1.011276841 0.513959408
C 5.844973087 -0.472276688 -0.183039159
N 4.942973614 -4.222278118 6.892952442
C 4.122972965 -3.492278099 5.937950611
C 4.209972858 -3.988277912 4.478950977
O 3.540969133 -3.429277420 3.603955507
C 4.428972721 -1.992277503 6.034950733
O 3.893972635 -1.423277736 7.238953114
N 4.999972820 -5.036279202 4.210953236
C 5.206973553 -5.547278881 2.831960440
C 3.916973829 -5.793277264 2.025961161
O 2.932969332 -6.323279858 2.541959524
C 6.078973293 -6.812278271 2.849958181
C 6.843972683 -7.062278271 1.556959033
C 7.753974438 -8.286273956 1.623960137
C 8.516967773 -8.502273560 0.311955959
N 7.722971439 -8.250274658 -0.934038460
N 3.919974089 -5.403277874 0.756955922
C 2.732969522 -5.550279140 -0.087038442
C 1.671969652 -4.478278637 0.150960565
O 0.579970241 -4.578279018 -0.409044325
N 1.968968391 -3.474277496 0.992956281
C 1.055971622 -2.326276779 1.233960986
C 0.033971071 -2.479276657 2.369954824
O -1.190031052 -2.275278091 2.168958902
N 0.547970891 -2.819276810 3.561955690
C -0.241028666 -3.135276794 4.761955738
C 0.190970704 -2.383277893 5.992950916
O 1.331971169 -1.939278483 6.104950428
C -0.182028711 -4.636277676 5.079956532
C -0.821028709 -5.461278439 4.002955914
C -2.214028597 -5.589278698 3.942960024
C -0.043028764 -6.102279186 3.024961233
C -2.822031736 -6.341277599 2.941961050
C -0.639029205 -6.851279736 2.017957926
C -2.031029463 -6.960277081 1.982961774
O -2.656031370 -7.689275265 0.984960675
N -0.750029325 -2.239276886 6.920952320
C -0.428028852 -1.798277497 8.283959389
C -0.797028542 -2.960277557 9.209961891
O -1.796029091 -3.675277710 8.972962379
C -1.154029369 -0.488277406 8.654961586
C -2.676031828 -0.512277663 8.493958473
S -3.565031767 0.973722517 9.067963600
C -5.227026463 0.311723620 8.857964516
N -4.142031670 -4.997277737 7.491951466
C -5.182026386 -4.231278896 6.760956287
C -4.529026508 -3.476276398 5.582954884
O -3.471029997 -2.805276871 5.743950367
C -5.938026905 -3.257276535 7.714951038
C -6.689026356 -2.190277100 6.951950550
C -6.910027027 -4.037279606 8.610962868
N -5.136026859 -3.614277363 4.397949696
C -4.639027119 -2.934276581 3.199956656
C -4.716026783 -1.411278605 3.283956289
O -5.721025944 -0.837276876 3.773961306
N -3.644030333 -0.775278509 2.838956594
C -3.589030027 0.672723949 2.605954885
C -3.643030882 1.007722735 1.126958251
O -3.253031492 0.215723008 0.298955441
C -2.304029703 1.256722569 3.177961111
C -2.272029638 1.337722182 4.712952137
C -0.940030217 1.907721877 5.200951099
C -3.431030989 2.179722786 5.231949329
N -4.121031761 2.202722073 0.800954819
C -4.115030766 2.714723587 -0.572038651
C -3.524031401 4.129721642 -0.544038832
O -3.741030455 4.881721973 0.448956817
C -5.546026707 2.732723236 -1.161043763
C -6.130026340 1.339722991 -1.320040345
C -6.085026264 0.690723479 -2.546045542
C -6.704027653 0.653722942 -0.235041082
C -6.614027500 -0.588277876 -2.711038828
C -7.234026432 -0.617277205 -0.382044226
C -7.182026386 -1.242277503 -1.629045844
O -7.664026737 -2.535276413 -1.829043984
N -2.773030043 4.479722500 -1.604044318
C -2.321029902 5.858721256 -1.822039962
C -3.279030561 6.719721317 -2.688043833
O -3.752030134 6.279720783 -3.744041681
C -0.948029757 5.855720997 -2.482042551
O -0.573029160 7.188721180 -2.781038523
N -0.316029310 8.217721939 -5.557044506
C 0.707970858 7.416721821 -6.208045483
C 0.097971171 6.196720600 -6.851043224
O -1.002028704 5.813721180 -6.518050671
C 1.834968805 7.045721531 -5.222045422
C 2.636968851 8.242721558 -4.735045910
S 3.987972975 7.808722019 -3.615045786
C 3.087969065 6.844721317 -2.403040171
N 0.803971112 5.615721226 -7.806040287
C 0.341970414 4.417722225 -8.490042686
C 1.094970942 3.238723755 -7.845042229
O 2.300969362 3.320722580 -7.562049389
C 0.626970291 4.530723095 -10.003035545
N 0.367970198 2.166722298 -7.571044445
C 0.916971922 0.990722597 -6.921050549
C 1.361970901 -0.061277352 -7.956043243
O 0.558970451 -0.519277632 -8.791037560
C -0.149028733 0.385722965 -5.992049694
C 0.259970963 -0.972277224 -5.417045116
C -0.219029322 -2.219276428 -5.781043530
C 1.251970291 -1.202276826 -4.402045727
N 0.419970334 -3.197277546 -5.042045116
C 1.329970360 -2.601276398 -4.199050426
C 2.092969179 -0.354276657 -3.653040171
C 2.199969530 -3.173277378 -3.252039194
C 2.969969034 -0.911278486 -2.728044748
C 3.002969027 -2.322277069 -2.521044016
N 2.623969316 -0.468276978 -7.890040874
C 3.053968668 -1.595278859 -8.712035179
C 3.353968859 -2.810277939 -7.854045868
O 4.359973431 -2.818277359 -7.105048656
C 4.254972935 -1.280278087 -9.605040550
C 4.300973415 -2.305276871 -10.721037865
C 4.126972675 0.109721966 -10.206038475
N 2.451969385 -3.805277348 -7.963043213
C 2.497968912 -5.069278240 -7.215049267
C 3.899973154 -5.658278942 -7.210044384
O 4.518972874 -5.805278301 -6.142043591
N 7.001972675 -4.090278149 -5.334044933
C 6.532972813 -3.723278999 -3.970045328
C 6.626972675 -2.218276978 -3.662042856
O 7.246973515 -1.799276948 -2.664041758
C 7.269973278 -4.551278591 -2.874040842
C 6.807973385 -4.215278149 -1.447039008
O 5.618973255 -4.200278759 -1.148043275
N 7.759973049 -3.925278664 -0.567041397
N 6.018972874 -1.397278666 -4.514045238
C 6.151973248 0.038722873 -4.317046642
C 5.029973507 0.843723357 -4.903045177
O 4.302973270 0.362722278 -5.798049450
C 7.532972813 0.564722061 -4.781043530
C 7.769970894 0.441722602 -6.284049511
O 6.902972698 0.052722778 -7.067046642
N 8.967967987 0.805723131 -6.689048290
N 4.865972996 2.043721676 -4.348044872
C 3.992973089 3.057722092 -4.945044994
C 4.936973095 4.079722404 -5.550048351
O 6.010973454 4.346723080 -4.985045910
C 3.163969278 3.806722641 -3.894048929
C 1.957968473 3.114723206 -3.272043467
C 0.748971343 2.876722336 -3.856044054
C 1.849969387 2.636723042 -1.923043847
N -0.095028713 2.251722336 -2.970041513
C 0.557971001 2.102721691 -1.770045161
C 2.734969378 2.587723255 -0.837038279
C 0.116971269 1.535722136 -0.561044753
C 2.291969538 2.030723572 0.359959990
C 0.995971382 1.510722518 0.480954528
N -2.537029982 8.455720901 2.923955679
C -2.518030882 6.982721806 2.898961782
C -3.736031294 6.452721119 3.670956850
O -3.846029997 6.598721027 4.895950794
C -1.195029974 6.377722263 3.425954580
C 0.093970478 6.368721485 2.560956717
C 1.260971069 5.734720707 3.307958364
C -0.063029140 5.698721409 1.204961419
N -4.655025959 5.827721119 2.942960501
C -6.002026081 5.661720753 3.467953920
C -6.506027699 4.214721680 3.396955252
O -5.926027775 3.384723663 2.695958853
C -6.975027561 6.640720844 2.738958120
C -7.269026279 6.266722202 1.278959155
C -8.397029877 5.525721073 0.952955127
C -6.387026310 6.632721424 0.240956813
C -8.673032761 5.174721241 -0.363039166
C -6.620026112 6.262720585 -1.095041871
C -7.772026539 5.539721012 -1.387041450
O -8.047024727 5.174721241 -2.669039011
