195

S 1.424811125 1.611797929 0.196680158
I 0.533983231 0.423147619 0.750288785
C 0.960224509 1.219860196 -1.119669199
P -1.473702550 -2.148746967 -0.772366464
Cl -0.042736225 -0.995539606 -0.049471967
B 0.362459123 1.261626363 0.353145808
C -0.666360378 -0.716174841 -0.609983802
Cl -1.076898575 -1.175456762 -0.343179137
I -1.076342106 -0.300247967 -1.325606942
B 0.186430022 -0.297444493 0.340048403
C 2.004990816 -0.681465387 2.926352501
F -1.387517929 -2.353995085 -1.679476380
P -1.017631769 -1.625826836 0.152758330
Br -1.039989591 -0.514643312 -0.422709942
N 0.821342409 0.832758367 0.657789707
I -0.196852833 -1.369898081 -1.920010924
F 0.296878695 1.455886126 0.231305540
P 0.215281948 1.858756661 -1.450678110
F -0.822470069 1.005636930 0.365371555
I 1.994099855 2.509969473 3.719412088
N 7.202958107 -0.735739708 0.656212151
C 6.791958809 -1.386740565 1.897216797
C 7.833958626 -2.413738489 2.407212019
O 7.919958115 -3.507737875 1.855209351
C 5.476958275 -2.105740786 1.515213013
C 5.022958755 -1.469738841 0.262214720
C 6.231958389 -0.930739284 -0.434783727
N 5.329958916 -4.680740833 6.641211033
C 4.509958267 -3.950739622 5.686209202
C 4.596958160 -4.446741581 4.227209568
O 3.927956820 -3.887738943 3.352211237
C 4.815958023 -2.450738668 5.783209324
O 4.280958176 -1.881739855 6.987211704
N 5.386958122 -5.494741917 3.959211588
C 5.593958855 -6.005741596 2.580216169
C 4.303958893 -6.251739979 1.774215937
O 3.319957018 -6.781742573 2.290215254
C 6.465958595 -7.270740986 2.598213911
C 7.230957985 -7.520740986 1.305214405
C 8.140957832 -8.744738579 1.372215509
C 8.903956413 -8.960738182 0.060211252
N 8.109956741 -8.708739281 -1.185783386
N 4.306958199 -5.861740589 0.505211115
C 3.119957209 -6.008741856 -0.338783145
C 2.058956385 -4.936741352 -0.100784071
O 0.966957211 -5.036741734 -0.660789251
N 2.355956316 -3.932739258 0.741211236
C 1.442958236 -2.784738302 0.982216358
C 0.420957744 -2.937738180 2.118210554
O -0.803043604 -2.733739614 1.917213202
N 0.934957802 -3.277738333 3.310211420
C 0.145958021 -3.593738317 4.510214329
C 0.577957273 -2.841739416 5.741209507
O 1.718957782 -2.397739649 5.853209019
C 0.204958007 -5.094740391 4.828215122
C -0.434041768 -5.919741154 3.751213312
C -1.827041507 -6.047741413 3.691215754
C 0.343957990 -6.560741901 2.773216963
C -2.435044050 -6.799740314 2.690216780
C -0.252042681 -7.309742451 1.766212702
C -1.644043088 -7.418739796 1.731216669
O -2.269043684 -8.147738457 0.733215630
N -0.363042682 -2.697738409 6.669210911
C -0.041042201 -2.256738901 8.032213211
C -0.410041600 -3.418739080 8.958214760
O -1.409042478 -4.133739471 8.721215248
C -0.767042279 -0.946740031 8.403214455
C -2.289044142 -0.970740199 8.242211342
S -3.178044081 0.515259862 8.816216469
C -4.840041161 -0.146738678 8.606217384
N -3.755043745 -5.455740452 7.240210056
C -4.795041084 -4.689741611 6.509214878
C -4.142041206 -3.934738159 5.331213474
O -3.084042311 -3.263738394 5.492208958
C -5.551041603 -3.715738058 7.463209629
C -6.302041054 -2.648738623 6.700209141
C -6.523041725 -4.495741367 8.359215736
N -4.749041557 -4.072739124 4.146208286
C -4.252041817 -3.392738104 2.948212385
C -4.329041481 -1.869740725 3.032212019
O -5.334040642 -1.295739055 3.522217035
N -3.257042646 -1.233740926 2.587212324
C -3.202042341 0.214261457 2.354210615
C -3.256043196 0.549260199 0.875214040
O -2.866043806 -0.242739290 0.047210764
C -1.917042136 0.798260629 2.926216841
C -1.885042548 0.879260123 4.461210728
C -0.553043246 1.449259877 4.949209690
C -3.044043303 1.721261382 4.980207920
N -3.734043360 1.744259953 0.549209893
C -3.728042841 2.256262064 -0.823783576
C -3.137043715 3.671260595 -0.795783699
O -3.354042768 4.423259258 0.197212249
C -5.159041405 2.274261713 -1.412788391
C -5.743041039 0.881260931 -1.571784973
C -5.698040962 0.232261106 -2.797789812
C -6.317042351 0.195260480 -0.486785740
C -6.227042198 -1.046740413 -2.962783098
C -6.847041130 -1.075739741 -0.633788884
C -6.795041084 -1.700739622 -1.880790472
O -7.277041435 -2.993737936 -2.080787420
N -2.386042356 4.021259785 -1.855788946
C -1.934042335 5.400258541 -2.073783636
C -2.892042875 6.261258602 -2.939788103
O -3.365042448 5.821258068 -3.995786428
C -0.561042786 5.397258282 -2.733786821
O -0.186042652 6.730258465 -3.032782793
N 0.070957310 7.759256840 -5.808785915
C 1.094957709 6.958259106 -6.459786892
C 0.484957755 5.738257885 -7.102784634
O -0.615041733 5.355258465 -6.769792080
C 2.221956491 6.587258816 -5.473786831
C 3.023956537 7.784257412 -4.986787319
S 4.374958038 7.350259304 -3.866790056
C 3.474956751 6.386258602 -2.654784441
N 1.190957427 5.157258511 -8.057785988
C 0.728957295 3.959259272 -8.741789818
C 1.481957555 2.780262232 -8.096789360
O 2.687957048 2.862261057 -7.813790798
C 1.013957262 4.072259903 -10.254782677
N 0.754957318 1.708260894 -7.822785854
C 1.303958297 0.532260001 -7.172791958
C 1.748957515 -0.519739807 -8.207787514
O 0.945957363 -0.977740169 -9.042784691
C 0.237957969 -0.072739340 -6.243791103
C 0.646957636 -1.430739284 -5.668786526
C 0.167957366 -2.677737951 -6.032784939
C 1.638956904 -1.660738826 -4.653787136
N 0.806957364 -3.655739069 -5.293786526
C 1.716956973 -3.059737921 -4.450791836
C 2.479956865 -0.812739253 -3.904784441
C 2.586957216 -3.631738901 -3.503783464
C 3.356956720 -1.369740367 -2.979789019
C 3.389956713 -2.780738592 -2.772788286
N 3.010957003 -0.926739573 -8.141787529
C 3.440956354 -2.053740740 -8.963782310
C 3.740956545 -3.268739462 -8.105792046
O 4.746958733 -3.276738882 -7.356790066
C 4.641958237 -1.738740206 -9.856787682
C 4.687958717 -2.763738394 -10.972784996
C 4.513957977 -0.348740339 -10.457785606
N 2.838957071 -4.263740063 -8.214789391
C 2.884956598 -5.527740955 -7.466790676
C 4.286958694 -6.116741657 -7.461785793
O 4.905958176 -6.263741016 -6.393785000
N 7.388957977 -4.548740864 -5.585786343
C 6.919958115 -4.181741238 -4.221786976
C 7.013957977 -2.676738501 -3.913787127
O 7.633958817 -2.257738352 -2.915786028
C 7.656958580 -5.009741306 -3.125785112
C 7.194958687 -4.673740864 -1.698783636
O 6.005958557 -4.658741474 -1.399787903
N 8.146957397 -4.383741856 -0.818786323
N 6.405958176 -1.855740786 -4.765786648
C 6.538958549 -0.419739485 -4.568788052
C 5.416958809 0.385260820 -5.154786587
O 4.689958572 -0.095740072 -6.049790859
C 7.919958115 0.106259622 -5.032784939
C 8.156956673 -0.016739717 -6.535790920
O 7.289958000 -0.405739546 -7.318788052
N 9.354956627 0.347260565 -6.940789700
N 5.252958298 1.585259557 -4.599786282
C 4.379958153 2.599260569 -5.196786404
C 5.323958397 3.621261358 -5.801789761
O 6.397958755 3.888259649 -5.236787319
C 3.550956964 3.348261118 -4.145791054
C 2.344956636 2.656261683 -3.523787737
C 1.135958076 2.418260813 -4.107787609
C 2.236956835 2.178261280 -2.174788713
N 0.291957915 1.793260217 -3.221785784
C 0.944957912 1.644259810 -2.021789312
C 3.121957064 2.129261494 -1.088783264
C 0.503957868 1.077260137 -0.812789619
C 2.678957224 1.572260976 0.108215347
C 1.382957816 1.052260518 0.229209930
N -2.150042295 7.997257710 2.672211409
C -2.131043196 6.524259090 2.647217512
C -3.349043608 5.994258404 3.419212580
O -3.459042311 6.140258312 4.644209385
C -0.808042765 5.919259548 3.174210310
C 0.480957091 5.910258770 2.309212446
C 1.647957683 5.276257992 3.056214094
C 0.323957533 5.240258694 0.953216910
N -4.268040657 5.369258404 2.691216230
C -5.615040779 5.203258038 3.216209650
C -6.119042397 3.756261110 3.145210981
O -5.539042473 2.926262140 2.444214582
C -6.588042259 6.182258129 2.487213850
C -6.882040977 5.808259487 1.027214527
C -8.010040283 5.067258358 0.701210320
C -6.000041008 6.174258709 -0.010787789
C -8.286044121 4.716258526 -0.614783943
C -6.233040810 5.804257870 -1.346786499
C -7.385041237 5.081258297 -1.638786077
O -7.660040855 4.716258526 -2.920783281
